; Filename: ../LeakDB/CCWI-WDSA2018/Dataset_Generator/networks/Hanoi_CMH.inp
; WNTR: 0.3.1
; Created: 2022-05-11 11:56:31
[TITLE]

[JUNCTIONS]
;ID                      Elevation       Demand Pattern                 
 2                                 30          247.22 Pattern_2                  ;
 3                                 30          236.11 Pattern_3                  ;
 4                                 30           36.11 Pattern_4                  ;
 5                                 30          201.39 Pattern_5                  ;
 6                                 30          279.17 Pattern_6                  ;
 7                                 30             375 Pattern_7                  ;
 8                                 30          152.78 Pattern_8                  ;
 9                                 30          145.83 Pattern_9                  ;
 10                                30          145.83 Pattern_10                 ;
 11                                30          138.89 Pattern_11                 ;
 12                                30          155.56 Pattern_12                 ;
 13                                30          261.11 Pattern_13                 ;
 14                                30          170.83 Pattern_14                 ;
 15                                30           77.78 Pattern_15                 ;
 16                                30           86.11 Pattern_16                 ;
 17                                30          240.28 Pattern_17                 ;
 18                                30          373.61 Pattern_18                 ;
 19                                30           16.67 Pattern_19                 ;
 20                                30          354.17 Pattern_20                 ;
 21                                30          258.33 Pattern_21                 ;
 22                                30          134.72 Pattern_22                 ;
 23                                30          290.28 Pattern_23                 ;
 24                                30          227.78 Pattern_24                 ;
 25                                30           47.22 Pattern_25                 ;
 26                                30             250 Pattern_26                 ;
 27                                30          102.78 Pattern_27                 ;
 28                                30           80.56 Pattern_28                 ;
 29                                30             100 Pattern_29                 ;
 30                                30             100 Pattern_30                 ;
 31                                30           29.17 Pattern_31                 ;
 32                                30          223.61 Pattern_32                 ;

[RESERVOIRS]
;ID                                   Head                  Pattern
 1                                100                            ;

[TANKS]
;ID                              Elevation           Init Level            Min Level            Max Level             Diameter           Min Volume Volume Curve         Overflow            

[PIPES]
;ID                   Node1                Node2                              Length             Diameter            Roughness           Minor Loss               Status
 1                    1                    2                                100            1016             130               0                 Open   ;
 2                    2                    3                               1350            1016             130               0                 Open   ;
 3                    3                    4                                900            1016             130               0                 Open   ;
 4                    4                    5                               1150            1016             130               0                 Open   ;
 5                    5                    6                               1450            1016             130               0                 Open   ;
 6                    6                    7                                450            1016             130               0                 Open   ;
 7                    7                    8                                850            1016             130               0                 Open   ;
 8                    8                    9                                850            1016             130               0                 Open   ;
 9                    9                    10                               800            1016             130               0                 Open   ;
 10                   10                   11                               950             762             130               0                 Open   ;
 11                   11                   12                              1200             762             130               0                 Open   ;
 12                   12                   13                              3500           609.6             130               0                 Open   ;
 13                   10                   14                               800           406.4             130               0                 Open   ;
 14                   14                   15                               500           406.4             130               0                 Open   ;
 15                   15                   16                               550           304.8             130               0                 Open   ;
 16                   17                   16                              2730           406.4             130               0                 Open   ;
 17                   17                   18                              1750             508             130               0                 Open   ;
 18                   18                   19                               800           609.6             130               0                 Open   ;
 19                   19                   3                                400           609.6             130               0                 Open   ;
 20                   3                    20                              2200            1016             130               0                 Open   ;
 21                   20                   21                              1500             508             130               0                 Open   ;
 22                   21                   22                               500           304.8             130               0                 Open   ;
 23                   20                   23                              2650            1016             130               0                 Open   ;
 24                   23                   24                              1230             762             130               0                 Open   ;
 25                   24                   25                              1300             762             130               0                 Open   ;
 26                   26                   25                               850             508             130               0                 Open   ;
 27                   27                   26                               300           304.8             130               0                 Open   ;
 28                   16                   27                               750           304.8             130               0                 Open   ;
 29                   23                   28                              1500           406.4             130               0                 Open   ;
 30                   28                   29                              2000           406.4             130               0                 Open   ;
 31                   29                   30                              1600           304.8             130               0                 Open   ;
 32                   30                   31                               150           304.8             130               0                 Open   ;
 33                   32                   31                               860           406.4             130               0                 Open   ;
 34                   25                   32                               950             508             130               0                 Open   ;

[PUMPS]
;ID                   Node1                Node2                Properties          

[VALVES]
;ID                   Node1                Node2                            Diameter Type              Setting           Minor Loss

[TAGS]
;type      name       tag       

[DEMANDS]
;ID        Demand     Pattern   

[STATUS]
;ID        Setting   
[PATTERNS]
;ID        Multipliers

Pattern_2 0.789255 0.668664 0.678262 0.699169 0.591108 0.554603
Pattern_2 0.528947 0.489914 0.497591 0.521226 0.583989 0.595476
Pattern_2 0.633114 0.674121 0.763222 0.827075 0.944195 0.985113
Pattern_2 1.026411 1.095182 1.289294 1.335526 1.335849 1.339525
Pattern_2 1.388968 1.314603 1.301090 1.344885 1.243256 1.233836
Pattern_2 1.147193 1.084324 1.079011 1.146754 1.145938 1.080689
Pattern_2 1.177845 1.239918 1.281355 1.179247 1.239198 1.192338
Pattern_2 1.149148 1.132252 1.228539 0.980965 0.880467 0.851929
Pattern_2 0.693691 0.701147 0.552390 0.520050 0.468928 0.442688
Pattern_2 0.445273 0.496148 0.590915 0.598086 0.663541 0.847129
Pattern_2 0.923161 1.090401 1.122328 1.345142 1.454260 1.572400
Pattern_2 1.586038 1.583758 1.636260 1.671345 1.596676 1.604383
Pattern_2 1.612585 1.488487 1.416254 1.257687 1.165483 1.210831
Pattern_2 1.080573 1.117912 1.164862 1.056191 1.215599 1.195708
Pattern_2 1.183928 1.279051 1.307777 1.276700 1.268596 1.290008
Pattern_2 1.311531 1.296485 1.163640 1.049657 0.905807 0.953806
Pattern_2 0.813381 0.742937 0.586803 0.533034 0.465177 0.463124
Pattern_2 0.463723 0.535545 0.517462 0.638407 0.774581 0.852471
Pattern_2 0.929997 1.042660 1.238902 1.279096 1.252668 1.431903
Pattern_2 1.579047 1.631255 1.478309 1.611348 1.555057 1.461232
Pattern_2 1.434927 1.382895 1.314660 1.179415 1.223077 1.221428
Pattern_2 1.237787 1.129554 1.139088 1.363122 1.210071 1.275032
Pattern_2 1.323032 1.190516 1.292077 1.449115 1.420546 1.476464
Pattern_2 1.297141 1.241727 1.198031 1.122494 0.926306 0.962837
Pattern_2 0.738582 0.742283 0.563642 0.520497 0.477945 0.485403
Pattern_2 0.503613 0.538582 0.516261 0.678325 0.798194 0.866442
Pattern_2 1.005428 1.102282 1.258946 1.374874 1.329360 1.480966
Pattern_2 1.616864 1.555053 1.520391 1.605485 1.550745 1.417423
Pattern_2 1.655828 1.366020 1.554503 1.390568 1.336324 1.376789
Pattern_2 1.243948 1.198137 1.223607 1.213607 1.135941 1.215267
Pattern_2 1.308086 1.312046 1.372292 1.314475 1.356391 1.385255
Pattern_2 1.393369 1.262886 1.173917 1.128127 0.988170 0.839376
Pattern_2 0.795316 0.713453 0.628544 0.545688 0.510579 0.475775
Pattern_2 0.472020 0.488574 0.516138 0.609664 0.721400 0.879309
Pattern_2 0.972298 1.022208 1.328570 1.338940 1.454400 1.487298
Pattern_2 1.576180 1.454840 1.496353 1.381989 1.471174 1.473573
Pattern_2 1.323327 1.334403 1.297910 1.327172 1.261476 1.236472
Pattern_2 1.165921 1.124193 1.230585 1.216812 1.206323 1.322776
Pattern_2 1.339992 1.374233 1.463954 1.361536 1.401157 1.309233
Pattern_2 1.294591 1.277828 1.175222 1.121233 1.085755 0.830939
Pattern_2 0.835761 0.794469 0.635434 0.596993 0.528705 0.482266
Pattern_2 0.493517 0.550404 0.663113 0.713173 0.811082 0.927709
Pattern_2 1.131044 1.240647 1.336378 1.578920 1.766916 1.671163
Pattern_2 1.860140 1.886073 1.746468 1.820924 1.827879 1.839090
Pattern_2 1.474128 1.550457 1.560725 1.348486 1.422827 1.223267
Pattern_2 1.311073 1.252347 1.296390 1.200368 1.314211 1.246197
Pattern_2 1.262703 1.352444 1.297393 1.310046 1.284638 1.246390
Pattern_2 1.190864 1.238870 1.140682 1.152582 0.958607 1.035542
Pattern_2 0.936640 0.779420 0.723091 0.643007 0.556361 0.531077
Pattern_2 0.505733 0.526437 0.526558 0.560311 0.680765 0.712528
Pattern_2 0.864452 0.906002 0.921009 1.069031 1.135164 1.343618
Pattern_2 1.431029 1.426020 1.483768 1.447178 1.380455 1.580749
Pattern_2 1.505015 1.403458 1.542171 1.393665 1.340084 1.454862
Pattern_2 1.310816 1.239009 1.245443 1.314838 1.271027 1.341090
Pattern_2 1.356681 1.297476 1.250053 1.276742 1.199469 1.242076
Pattern_2 1.102676 1.015898 0.970791 0.959103 0.915811 0.842312
Pattern_2 0.822887 0.686269 0.699553 0.611415 0.591961 0.545919
Pattern_2 0.508981 0.566734 0.562362 0.574093 0.557272 0.605303
Pattern_2 0.649131 0.730545 0.765999 0.888877 0.990815 1.064328
Pattern_2 1.069698 1.209430 1.319149 1.389961 1.456936 1.380529
Pattern_2 1.329919 1.360474 1.219001 1.280345 1.237868 1.268526
Pattern_2 1.289292 1.133928 1.192534 0.998924 1.196155 1.275848
Pattern_2 1.130730 1.220764 1.253832 1.221194 1.299356 1.245370
Pattern_2 1.342003 1.168830 1.148397 1.061215 0.909764 0.899252
Pattern_2 0.763198 0.698039 0.654679 0.574600 0.471436 0.484257
Pattern_2 0.471595 0.492901 0.535686 0.643841 0.710248 0.825779
Pattern_2 0.956252 1.104547 1.223020 1.343267 1.376031 1.494242
Pattern_2 1.837241 1.611949 1.547504 1.706015 1.707572 1.773288
Pattern_2 1.623040 1.392702 1.470963 1.322636 1.369029 1.064106
Pattern_2 1.143794 1.110427 1.169801 1.081282 1.119019 1.274836
Pattern_2 1.256411 1.305216 1.338477 1.379431 1.332760 1.319441
Pattern_2 1.347720 1.312710 1.233630 1.141179 1.042118 0.852608
Pattern_2 0.877353 0.731590 0.664763 0.579533 0.533851 0.464037
Pattern_2 0.511914 0.478265 0.597560 0.668303 0.772934 0.796776
Pattern_2 0.950531 1.148344 1.266908 1.235775 1.416271 1.501466
Pattern_2 1.453165 1.656607 1.514496 1.585200 1.481827 1.514754
Pattern_2 1.422318 1.378070 1.393140 1.245880 1.202788 1.325337
Pattern_2 1.097578 1.194718 1.150466 1.290164 1.291529 1.275281
Pattern_2 1.351906 1.450122 1.413053 1.485158 1.566285 1.425077
Pattern_2 1.317960 1.314575 1.261527 1.128565 1.023687 0.840829
Pattern_2 0.799776 0.678244 0.627117 0.561250 0.498872 0.469217
Pattern_2 0.537334 0.501454 0.648185 0.718899 0.711267 0.917094
Pattern_2 0.980985 1.254384 1.219287 1.281628 1.399733 1.516319
Pattern_2 1.529575 1.733267 1.546826 1.606544 1.728832 1.574233
Pattern_2 1.495767 1.393646 1.416714 1.374705 1.269247 1.333307
Pattern_2 1.277933 1.307785 1.162630 1.313539 1.249037 1.249310
Pattern_2 1.283317 1.201693 1.357074 1.360034 1.448497 1.387358
Pattern_2 1.410396 1.172029 1.204668 1.067806 1.027923 0.972517
Pattern_2 0.838475 0.743726 0.573949 0.541377 0.561528 0.478081
Pattern_2 0.475540 0.526242 0.550161 0.662550 0.671825 0.861773
Pattern_2 1.031956 1.224972 1.258776 1.445606 1.435577 1.407305
Pattern_2 1.582264 1.563640 1.678573 1.526872 1.473370 1.455684
Pattern_2 1.419955 1.425737 1.370224 1.262624 1.265074 1.263507
Pattern_2 1.213519 1.127370 1.166131 1.224580 1.218879 1.301439
Pattern_2 1.344632 1.354944 1.510189 1.356691 1.411948 1.372382
Pattern_2 1.256289 1.195222 1.163985 1.133277 1.060451 0.914626
Pattern_2 0.805136 0.726733 0.663144 0.586547 0.513960 0.479671
Pattern_2 0.510288 0.555736 0.656967 0.706354 0.773266 1.033121
Pattern_2 1.123948 1.164130 1.455201 1.537072 1.580320 1.759647
Pattern_2 1.897007 1.972401 1.871471 1.760229 1.670788 1.741004
Pattern_2 1.518629 1.528295 1.502154 1.396488 1.320647 1.408329
Pattern_2 1.297234 1.247843 1.272628 1.252097 1.202947 1.336164
Pattern_2 1.305161 1.368376 1.244187 1.303533 1.335121 1.218390
Pattern_2 1.312665 1.278324 1.257081 1.199695 1.081035 0.963212
Pattern_2 0.881107 0.833635 0.754327 0.610696 0.609520 0.503654
Pattern_2 0.493934 0.521702 0.590293 0.594048 0.629776 0.723474
Pattern_2 0.826452 0.885670 1.055623 1.118070 1.255637 1.206925
Pattern_2 1.354692 1.452889 1.416695 1.453416 1.530624 1.340516
Pattern_2 1.375098 1.310582 1.355532 1.383644 1.352697 1.409803
Pattern_2 1.301653 1.466062 1.353144 1.258156 1.284071 1.302821
Pattern_2 1.381650 1.267447 1.233678 1.263455 1.209421 1.111350
Pattern_2 1.129330 0.980217 1.017453 0.993663 0.980858 0.847442
Pattern_2 0.739965

Pattern_3 0.736509 0.718428 0.696973 0.669228 0.686221 0.622016
Pattern_3 0.605703 0.641699 0.594421 0.636716 0.624581 0.660403
Pattern_3 0.758139 0.862423 0.874250 0.967623 1.034410 0.993858
Pattern_3 1.122398 1.144889 1.202746 1.337754 1.292105 1.257561
Pattern_3 1.458319 1.409695 1.329416 1.162736 1.145491 1.187422
Pattern_3 1.205961 1.286984 1.161822 1.148812 1.182400 1.075256
Pattern_3 1.170291 1.222775 1.339304 1.174792 1.081889 1.167627
Pattern_3 1.285016 1.105792 1.050683 1.050693 0.894571 0.823888
Pattern_3 0.810523 0.621658 0.653164 0.563459 0.542616 0.560731
Pattern_3 0.586841 0.577450 0.601880 0.681929 0.787871 0.831246
Pattern_3 0.972056 0.953250 1.142735 1.297647 1.335519 1.331534
Pattern_3 1.412741 1.404877 1.540055 1.458407 1.531474 1.563736
Pattern_3 1.450631 1.457726 1.337407 1.267833 1.255642 1.304582
Pattern_3 1.148303 1.155551 1.209902 1.217516 1.264250 1.243756
Pattern_3 1.162414 1.199983 1.306093 1.390678 1.387471 1.304323
Pattern_3 1.155564 1.197179 1.205056 1.069442 0.962938 0.976377
Pattern_3 0.832977 0.774537 0.663006 0.602882 0.557868 0.621424
Pattern_3 0.548955 0.560821 0.642867 0.729642 0.824864 0.847685
Pattern_3 0.987832 0.984633 1.182890 1.164309 1.361278 1.442419
Pattern_3 1.447385 1.491644 1.500965 1.498855 1.417431 1.363618
Pattern_3 1.447748 1.267417 1.186539 1.308908 1.311053 1.167288
Pattern_3 1.049846 1.097754 1.216988 1.178008 1.288781 1.201615
Pattern_3 1.208367 1.285568 1.303597 1.294183 1.318011 1.309573
Pattern_3 1.359440 1.311502 1.163004 1.104959 0.943161 0.920046
Pattern_3 0.829189 0.797925 0.637750 0.570854 0.581659 0.571856
Pattern_3 0.577284 0.568669 0.666871 0.763845 0.810011 0.919703
Pattern_3 0.988233 1.160238 1.173641 1.359991 1.353341 1.411398
Pattern_3 1.392870 1.589546 1.334683 1.431321 1.488019 1.505002
Pattern_3 1.354249 1.429002 1.409678 1.273495 1.290894 1.134833
Pattern_3 1.181378 1.189976 1.172331 1.276032 1.219985 1.254737
Pattern_3 1.186328 1.295472 1.286380 1.390011 1.303376 1.289737
Pattern_3 1.373253 1.239199 1.152294 1.057472 1.053813 0.882512
Pattern_3 0.819421 0.688804 0.717946 0.623037 0.560279 0.557746
Pattern_3 0.589234 0.611217 0.606780 0.755088 0.720896 0.896261
Pattern_3 0.973413 1.120090 1.160234 1.321602 1.390885 1.457467
Pattern_3 1.389516 1.417291 1.437427 1.487938 1.360177 1.407447
Pattern_3 1.313051 1.180769 1.258653 1.207673 1.190031 1.180616
Pattern_3 1.176652 1.126735 1.174180 1.179660 1.226973 1.178964
Pattern_3 1.374695 1.269578 1.328054 1.214034 1.379475 1.267053
Pattern_3 1.289105 1.167077 1.164815 1.125712 1.022707 0.958024
Pattern_3 0.883156 0.776572 0.765087 0.657752 0.542904 0.641235
Pattern_3 0.591837 0.633252 0.753171 0.744994 0.838917 1.023699
Pattern_3 1.094642 1.156442 1.356469 1.546283 1.513274 1.509785
Pattern_3 1.554027 1.570953 1.637490 1.628647 1.533395 1.440651
Pattern_3 1.503076 1.367956 1.406865 1.324868 1.333808 1.394992
Pattern_3 1.247016 1.255435 1.258068 1.152895 1.303170 1.173596
Pattern_3 1.361294 1.282225 1.289177 1.320405 1.279411 1.205736
Pattern_3 1.347245 1.245710 1.220050 1.093612 1.038411 0.998202
Pattern_3 0.839914 0.805930 0.703133 0.708262 0.635043 0.626122
Pattern_3 0.599691 0.658592 0.630971 0.703218 0.693672 0.822801
Pattern_3 0.920657 0.885472 1.203586 1.127313 1.187197 1.282071
Pattern_3 1.331471 1.517508 1.509624 1.377351 1.394271 1.442947
Pattern_3 1.457457 1.383768 1.351163 1.299428 1.379078 1.263573
Pattern_3 1.398407 1.225723 1.221002 1.195789 1.363155 1.357445
Pattern_3 1.266415 1.347955 1.115594 1.240341 1.221404 1.230491
Pattern_3 1.132005 0.896809 0.995918 0.972139 0.955234 0.904235
Pattern_3 0.803650 0.754933 0.692752 0.656309 0.580313 0.661090
Pattern_3 0.647160 0.642362 0.569029 0.627528 0.680617 0.746422
Pattern_3 0.796236 0.847007 0.905846 1.045009 1.002681 1.143254
Pattern_3 1.179693 1.227381 1.218096 1.252025 1.285013 1.292367
Pattern_3 1.276867 1.341034 1.355702 1.200781 1.102488 1.167695
Pattern_3 1.066925 1.094685 1.237370 1.252437 1.239743 1.218268
Pattern_3 1.139584 1.218991 1.279470 1.303719 1.191467 1.240845
Pattern_3 1.191096 1.188729 1.144361 1.076428 0.995226 0.867278
Pattern_3 0.764981 0.697612 0.622159 0.611866 0.556926 0.522500
Pattern_3 0.570916 0.590180 0.653011 0.712660 0.853742 0.897869
Pattern_3 0.898906 1.110690 1.110963 1.329766 1.423077 1.384543
Pattern_3 1.478150 1.793932 1.515947 1.498623 1.510254 1.631270
Pattern_3 1.564016 1.417515 1.313086 1.310593 1.225012 1.201177
Pattern_3 1.106825 1.186155 1.266295 1.039493 1.184744 1.145766
Pattern_3 1.231602 1.280052 1.364251 1.307798 1.251485 1.453662
Pattern_3 1.252745 1.278929 1.080639 1.144655 1.015420 0.925660
Pattern_3 0.898353 0.752535 0.650085 0.637722 0.619128 0.582374
Pattern_3 0.541613 0.622598 0.693589 0.707655 0.787167 0.911187
Pattern_3 0.940590 1.149192 1.181229 1.342500 1.266423 1.405947
Pattern_3 1.506410 1.476320 1.435101 1.557653 1.428238 1.356892
Pattern_3 1.468681 1.432065 1.316568 1.193838 1.226410 1.123649
Pattern_3 1.135820 1.229920 1.200461 1.227427 1.274756 1.240735
Pattern_3 1.344616 1.238208 1.479806 1.387374 1.351328 1.351072
Pattern_3 1.407329 1.260730 1.125885 1.043288 1.096788 0.945255
Pattern_3 0.811222 0.744927 0.637475 0.633232 0.569559 0.568309
Pattern_3 0.592226 0.551886 0.696246 0.683153 0.926960 0.878147
Pattern_3 0.998453 1.087150 1.246261 1.244319 1.376166 1.470090
Pattern_3 1.644222 1.511071 1.346631 1.441921 1.671624 1.360316
Pattern_3 1.242153 1.317376 1.466505 1.323353 1.318874 1.296510
Pattern_3 1.128993 1.230956 1.143904 1.221390 1.226853 1.273826
Pattern_3 1.176127 1.263071 1.301728 1.326822 1.349311 1.324652
Pattern_3 1.292381 1.284934 1.155887 1.058339 0.941859 0.941248
Pattern_3 0.859657 0.696050 0.729558 0.613865 0.601653 0.562227
Pattern_3 0.585048 0.608235 0.694472 0.760552 0.789102 0.955537
Pattern_3 1.057901 1.176744 1.307695 1.376131 1.331916 1.422055
Pattern_3 1.455711 1.609799 1.443568 1.404374 1.468064 1.438398
Pattern_3 1.438188 1.406897 1.224117 1.293781 1.165569 1.212219
Pattern_3 1.224737 1.210717 1.144239 1.255150 1.226235 1.265615
Pattern_3 1.344338 1.480391 1.296868 1.411050 1.331383 1.431779
Pattern_3 1.279390 1.219482 1.290004 1.043962 0.988834 0.945199
Pattern_3 0.917993 0.782041 0.695418 0.650329 0.646748 0.648595
Pattern_3 0.582390 0.660108 0.647662 0.819311 0.906716 1.000644
Pattern_3 1.134942 1.288941 1.372237 1.580165 1.493241 1.653908
Pattern_3 1.544210 1.736356 1.725446 1.563700 1.620674 1.547747
Pattern_3 1.460420 1.530772 1.410488 1.545195 1.327871 1.343750
Pattern_3 1.288766 1.339500 1.412568 1.321930 1.312984 1.272010
Pattern_3 1.287364 1.243642 1.317325 1.302466 1.228567 1.303481
Pattern_3 1.146097 1.180993 1.204442 1.113184 1.039595 0.975037
Pattern_3 0.869525 0.844359 0.742921 0.718850 0.689273 0.604944
Pattern_3 0.611491 0.661540 0.594105 0.714062 0.787736 0.832239
Pattern_3 0.829333 0.903084 0.963041 1.224641 1.148803 1.292222
Pattern_3 1.261075 1.350557 1.361862 1.502457 1.457658 1.408263
Pattern_3 1.409160 1.283236 1.343229 1.351245 1.365841 1.424121
Pattern_3 1.293257 1.158240 1.308893 1.345502 1.372641 1.300477
Pattern_3 1.362623 1.307503 1.396823 1.231411 1.095356 1.108469
Pattern_3 1.128538 1.107882 1.095173 1.010004 0.874903 0.820334
Pattern_3 0.886084

Pattern_4 0.831175 0.792057 0.717041 0.701736 0.622226 0.584971
Pattern_4 0.617455 0.621285 0.535869 0.625701 0.571244 0.639982
Pattern_4 0.730568 0.762145 0.882298 0.865329 1.035353 1.139920
Pattern_4 1.190823 1.191729 1.185716 1.270012 1.346946 1.371753
Pattern_4 1.389712 1.287271 1.320849 1.348590 1.215803 1.206794
Pattern_4 1.220372 1.127556 1.226701 1.276978 1.166221 1.293800
Pattern_4 1.156752 1.109575 1.247158 1.165131 1.340674 1.243570
Pattern_4 1.200589 1.155050 1.060869 1.065865 0.940962 0.842374
Pattern_4 0.722151 0.728909 0.621181 0.600799 0.580581 0.533567
Pattern_4 0.535731 0.590867 0.562812 0.656370 0.749546 0.865077
Pattern_4 0.957500 1.019199 1.131530 1.296927 1.428111 1.448300
Pattern_4 1.667866 1.689454 1.722188 1.460171 1.738315 1.453044
Pattern_4 1.526689 1.407000 1.346374 1.338283 1.285247 1.167386
Pattern_4 1.174023 1.101325 1.131212 1.150669 1.097628 1.227089
Pattern_4 1.308182 1.272553 1.238415 1.327087 1.355536 1.299341
Pattern_4 1.270737 1.175684 1.186846 1.167904 1.099004 0.939292
Pattern_4 0.896591 0.715967 0.687742 0.606230 0.528863 0.543274
Pattern_4 0.501281 0.565340 0.576203 0.646468 0.761403 0.937477
Pattern_4 0.949117 1.051086 1.179757 1.239969 1.360599 1.416305
Pattern_4 1.637695 1.441761 1.547775 1.483767 1.524302 1.470750
Pattern_4 1.567752 1.444919 1.327296 1.405849 1.262764 1.210424
Pattern_4 1.272774 1.216198 1.077714 1.170266 1.252544 1.306401
Pattern_4 1.304401 1.358903 1.302496 1.276599 1.244835 1.459911
Pattern_4 1.302659 1.303870 1.151021 1.055581 0.959290 0.896083
Pattern_4 0.889106 0.680530 0.624197 0.569051 0.560681 0.488184
Pattern_4 0.576725 0.609188 0.654745 0.665303 0.803445 0.847891
Pattern_4 0.944210 1.114818 1.217657 1.311825 1.300445 1.523984
Pattern_4 1.558272 1.423604 1.517374 1.503973 1.510741 1.424017
Pattern_4 1.522555 1.427679 1.393391 1.401548 1.442971 1.375325
Pattern_4 1.263958 1.177388 1.264483 1.227006 1.258560 1.228535
Pattern_4 1.259853 1.403956 1.317405 1.366913 1.276712 1.352950
Pattern_4 1.306750 1.177623 1.260702 1.139573 0.918540 0.890850
Pattern_4 0.849453 0.771919 0.699597 0.549305 0.514304 0.534758
Pattern_4 0.509166 0.562002 0.616118 0.691891 0.786103 0.840302
Pattern_4 0.971211 1.164822 1.233945 1.343442 1.322070 1.515157
Pattern_4 1.382110 1.597488 1.614649 1.481305 1.554003 1.425560
Pattern_4 1.305792 1.350557 1.329551 1.246925 1.193350 1.220501
Pattern_4 1.114057 1.082001 1.211964 1.164230 1.184836 1.270241
Pattern_4 1.280343 1.368842 1.236976 1.313897 1.382938 1.373501
Pattern_4 1.342258 1.233449 1.217985 1.111074 1.030405 1.013528
Pattern_4 0.865636 0.724643 0.675414 0.579589 0.538841 0.554171
Pattern_4 0.579221 0.608927 0.670102 0.742093 0.859746 1.011399
Pattern_4 1.126847 1.253089 1.358716 1.411487 1.531016 1.622228
Pattern_4 1.709457 1.818244 1.774347 1.612935 1.724778 1.696640
Pattern_4 1.538632 1.552530 1.341602 1.408561 1.279193 1.260268
Pattern_4 1.322282 1.397985 1.411079 1.262856 1.318900 1.300953
Pattern_4 1.405496 1.351027 1.335489 1.322550 1.278368 1.264054
Pattern_4 1.267853 1.193146 1.220250 1.068051 1.009462 0.900990
Pattern_4 0.895576 0.774700 0.776954 0.691434 0.609260 0.680441
Pattern_4 0.524083 0.612036 0.644274 0.659050 0.631035 0.783387
Pattern_4 0.835099 0.934668 1.044315 1.143547 1.186222 1.237546
Pattern_4 1.367449 1.403929 1.576485 1.396259 1.690787 1.467364
Pattern_4 1.443708 1.439258 1.359205 1.399691 1.317029 1.417527
Pattern_4 1.358837 1.305060 1.313778 1.359038 1.361979 1.403236
Pattern_4 1.268666 1.347242 1.313931 1.310873 1.168766 1.309735
Pattern_4 1.177258 1.023074 0.981105 1.007460 0.919738 0.840679
Pattern_4 0.840784 0.700057 0.729089 0.647685 0.652581 0.608928
Pattern_4 0.596793 0.550899 0.592734 0.550509 0.577740 0.698166
Pattern_4 0.721829 0.794859 0.841360 0.948577 0.995230 1.163756
Pattern_4 1.029634 1.299479 1.246364 1.327196 1.447405 1.408931
Pattern_4 1.353714 1.510126 1.258764 1.229662 1.314067 1.282148
Pattern_4 1.213304 1.283279 1.324058 1.196165 1.206428 1.181968
Pattern_4 1.290220 1.280547 1.253053 1.197445 1.320708 1.238553
Pattern_4 1.186678 1.270287 1.179053 1.075397 1.049619 0.929218
Pattern_4 0.775503 0.745898 0.670317 0.588082 0.505965 0.512653
Pattern_4 0.555966 0.538555 0.583001 0.733414 0.695060 0.844698
Pattern_4 1.019188 1.175336 1.144687 1.261179 1.441097 1.516548
Pattern_4 1.677075 1.621519 1.645397 1.685137 1.584271 1.465494
Pattern_4 1.644080 1.403922 1.324571 1.271056 1.350852 1.204293
Pattern_4 1.113517 1.273093 1.101714 1.132678 1.174865 1.129927
Pattern_4 1.324643 1.382723 1.358412 1.332518 1.453306 1.367007
Pattern_4 1.459053 1.253443 1.173752 1.190195 1.094950 1.020682
Pattern_4 0.865706 0.781870 0.668104 0.597902 0.581563 0.551036
Pattern_4 0.532141 0.602470 0.603268 0.643390 0.852469 0.864426
Pattern_4 0.995434 1.102972 1.177667 1.189911 1.472445 1.435018
Pattern_4 1.595358 1.560199 1.618806 1.650504 1.576143 1.398064
Pattern_4 1.511317 1.443833 1.479426 1.351786 1.298312 1.248880
Pattern_4 1.355991 1.271932 1.177046 1.309042 1.237566 1.352209
Pattern_4 1.445017 1.416382 1.354194 1.448417 1.397398 1.357261
Pattern_4 1.366729 1.298159 1.203129 1.129376 1.055924 0.862378
Pattern_4 0.796059 0.700042 0.614588 0.604057 0.561690 0.490090
Pattern_4 0.565373 0.536260 0.609048 0.746968 0.747313 0.914593
Pattern_4 0.951606 1.196106 1.152187 1.343462 1.478938 1.606476
Pattern_4 1.555233 1.589667 1.526439 1.538075 1.588235 1.486004
Pattern_4 1.495583 1.385313 1.493768 1.372706 1.318817 1.190875
Pattern_4 1.367293 1.425163 1.262197 1.271715 1.355510 1.307742
Pattern_4 1.191276 1.325640 1.367418 1.449028 1.327487 1.197373
Pattern_4 1.311717 1.269986 1.197488 1.151683 1.051472 0.982897
Pattern_4 0.900726 0.769059 0.657150 0.626781 0.608893 0.538604
Pattern_4 0.535620 0.529283 0.614030 0.747094 0.785882 0.966363
Pattern_4 1.057721 1.199800 1.305781 1.329671 1.393931 1.501483
Pattern_4 1.510566 1.635834 1.601067 1.459141 1.552788 1.505497
Pattern_4 1.364397 1.402118 1.412341 1.368091 1.151385 1.264937
Pattern_4 1.258545 1.171567 1.303507 1.332641 1.200378 1.368209
Pattern_4 1.249089 1.229998 1.426195 1.356433 1.430551 1.352715
Pattern_4 1.322620 1.231132 1.171989 1.137174 1.115713 0.911415
Pattern_4 0.836572 0.834623 0.690596 0.665025 0.526522 0.558724
Pattern_4 0.569578 0.557709 0.668604 0.684834 0.919098 1.044556
Pattern_4 1.170648 1.147245 1.522336 1.547524 1.678783 1.613081
Pattern_4 1.926956 1.722843 1.830278 1.594597 1.599554 1.586967
Pattern_4 1.616751 1.483964 1.452228 1.462914 1.372300 1.330296
Pattern_4 1.358461 1.274167 1.397253 1.224943 1.364041 1.372410
Pattern_4 1.235252 1.428385 1.337897 1.333147 1.435413 1.294423
Pattern_4 1.304586 1.229117 1.263490 1.095248 1.000034 0.931851