; Filename: ../LeakDB/CCWI-WDSA2018/Dataset_Generator/networks/Hanoi_CMH.inp
; WNTR: 0.3.1
; Created: 2022-05-23 09:57:58
[TITLE]

[JUNCTIONS]
;ID                      Elevation       Demand Pattern                 
 2                                 30          247.22 Pattern_2                  ;
 3                                 30          236.11 Pattern_3                  ;
 4                                 30           36.11 Pattern_4                  ;
 5                                 30          201.39 Pattern_5                  ;
 6                                 30          279.17 Pattern_6                  ;
 7                                 30             375 Pattern_7                  ;
 8                                 30          152.78 Pattern_8                  ;
 9                                 30          145.83 Pattern_9                  ;
 10                                30          145.83 Pattern_10                 ;
 11                                30          138.89 Pattern_11                 ;
 12                                30          155.56 Pattern_12                 ;
 13                                30          261.11 Pattern_13                 ;
 14                                30          170.83 Pattern_14                 ;
 15                                30           77.78 Pattern_15                 ;
 16                                30           86.11 Pattern_16                 ;
 17                                30          240.28 Pattern_17                 ;
 18                                30          373.61 Pattern_18                 ;
 19                                30           16.67 Pattern_19                 ;
 20                                30          354.17 Pattern_20                 ;
 21                                30          258.33 Pattern_21                 ;
 22                                30          134.72 Pattern_22                 ;
 23                                30          290.28 Pattern_23                 ;
 24                                30          227.78 Pattern_24                 ;
 25                                30           47.22 Pattern_25                 ;
 26                                30             250 Pattern_26                 ;
 27                                30          102.78 Pattern_27                 ;
 28                                30           80.56 Pattern_28                 ;
 29                                30             100 Pattern_29                 ;
 30                                30             100 Pattern_30                 ;
 31                                30           29.17 Pattern_31                 ;
 32                                30          223.61 Pattern_32                 ;

[RESERVOIRS]
;ID                                   Head                  Pattern
 1                                100                            ;

[TANKS]
;ID                              Elevation           Init Level            Min Level            Max Level             Diameter           Min Volume Volume Curve         Overflow            

[PIPES]
;ID                   Node1                Node2                              Length             Diameter            Roughness           Minor Loss               Status
 1                    1                    2                                100            1016             130               0                 Open   ;
 2                    2                    3                               1350            1016             130               0                 Open   ;
 3                    3                    4                                900            1016             130               0                 Open   ;
 4                    4                    5                               1150            1016             130               0                 Open   ;
 5                    5                    6                               1450            1016             130               0                 Open   ;
 6                    6                    7                                450            1016             130               0                 Open   ;
 7                    7                    8                                850            1016             130               0                 Open   ;
 8                    8                    9                                850            1016             130               0                 Open   ;
 9                    9                    10                               800            1016             130               0                 Open   ;
 10                   10                   11                               950             762             130               0                 Open   ;
 11                   11                   12                              1200             762             130               0                 Open   ;
 12                   12                   13                              3500           609.6             130               0                 Open   ;
 13                   10                   14                               800           406.4             130               0                 Open   ;
 14                   14                   15                               500           406.4             130               0                 Open   ;
 15                   15                   16                               550           304.8             130               0                 Open   ;
 16                   17                   16                              2730           406.4             130               0                 Open   ;
 17                   17                   18                              1750             508             130               0                 Open   ;
 18                   18                   19                               800           609.6             130               0                 Open   ;
 19                   19                   3                                400           609.6             130               0                 Open   ;
 20                   3                    20                              2200            1016             130               0                 Open   ;
 21                   20                   21                              1500             508             130               0                 Open   ;
 22                   21                   22                               500           304.8             130               0                 Open   ;
 23                   20                   23                              2650            1016             130               0                 Open   ;
 24                   23                   24                              1230             762             130               0                 Open   ;
 25                   24                   25                              1300             762             130               0                 Open   ;
 26                   26                   25                               850             508             130               0                 Open   ;
 27                   27                   26                               300           304.8             130               0                 Open   ;
 28                   16                   27                               750           304.8             130               0                 Open   ;
 29                   23                   28                              1500           406.4             130               0                 Open   ;
 30                   28                   29                              2000           406.4             130               0                 Open   ;
 31                   29                   30                              1600           304.8             130               0                 Open   ;
 32                   30                   31                               150           304.8             130               0                 Open   ;
 33                   32                   31                               860           406.4             130               0                 Open   ;
 34                   25                   32                               950             508             130               0                 Open   ;

[PUMPS]
;ID                   Node1                Node2                Properties          

[VALVES]
;ID                   Node1                Node2                            Diameter Type              Setting           Minor Loss

[TAGS]
;type      name       tag       

[DEMANDS]
;ID        Demand     Pattern   

[STATUS]
;ID        Setting   
[PATTERNS]
;ID        Multipliers

Pattern_2 0.896085 0.809198 0.850084 0.752953 0.730855 0.661470
Pattern_2 0.639434 0.627494 0.673395 0.651227 0.697725 0.639381
Pattern_2 0.707107 0.749190 0.887492 0.940135 1.101841 1.041038
Pattern_2 1.156215 1.200317 1.314628 1.250596 1.358278 1.325956
Pattern_2 1.269874 1.327590 1.337786 1.301568 1.192462 1.219897
Pattern_2 1.084403 1.095611 1.142225 1.125181 1.244622 1.173078
Pattern_2 1.238877 1.211577 1.336140 1.289850 1.188962 1.216401
Pattern_2 1.240433 1.161895 1.155721 1.010979 0.972586 0.945286
Pattern_2 0.768468 0.804578 0.702905 0.619894 0.623743 0.615272
Pattern_2 0.589541 0.650806 0.688178 0.705778 0.768035 0.890768
Pattern_2 1.037801 1.054932 1.208782 1.132912 1.310865 1.405625
Pattern_2 1.502720 1.553829 1.429906 1.494989 1.551751 1.564380
Pattern_2 1.586553 1.348899 1.266845 1.261980 1.206509 1.071470
Pattern_2 1.093122 1.067879 1.150075 1.050822 1.056897 1.124022
Pattern_2 1.225577 1.339659 1.345881 1.385214 1.335875 1.372761
Pattern_2 1.289824 1.146071 1.158443 1.142151 0.940087 0.992766
Pattern_2 0.847499 0.746886 0.776310 0.664165 0.677040 0.645766
Pattern_2 0.629821 0.653370 0.765646 0.683601 0.754656 0.842948
Pattern_2 1.015494 1.142145 1.158948 1.320104 1.412687 1.381515
Pattern_2 1.438480 1.319319 1.533345 1.487545 1.444762 1.307190
Pattern_2 1.487228 1.295565 1.358562 1.256320 1.169659 1.199866
Pattern_2 1.166415 1.075317 1.117400 1.262296 1.184263 1.238583
Pattern_2 1.362883 1.304221 1.368637 1.395847 1.264571 1.413878
Pattern_2 1.337831 1.321040 1.289567 1.070946 1.115822 0.938698
Pattern_2 0.861784 0.716403 0.753057 0.661137 0.654585 0.608891
Pattern_2 0.597599 0.610769 0.682261 0.754446 0.805762 0.971402
Pattern_2 1.043647 1.137038 1.205629 1.206394 1.336561 1.454093
Pattern_2 1.428945 1.496997 1.535149 1.444347 1.568041 1.453886
Pattern_2 1.313152 1.343103 1.410494 1.241950 1.306984 1.318429
Pattern_2 1.194597 1.101978 1.160009 1.237975 1.179242 1.277326
Pattern_2 1.228585 1.201488 1.296661 1.307972 1.294981 1.408936
Pattern_2 1.395950 1.250589 1.269110 1.178078 1.052845 0.985821
Pattern_2 0.847930 0.794230 0.723670 0.677191 0.581618 0.584533
Pattern_2 0.617206 0.554418 0.701841 0.818971 0.865501 0.956939
Pattern_2 0.983455 1.056688 1.247423 1.237179 1.519049 1.406312
Pattern_2 1.312751 1.420218 1.390323 1.457363 1.336148 1.410177
Pattern_2 1.441445 1.222592 1.197981 1.234448 1.263609 1.149114
Pattern_2 1.146811 1.069321 1.171317 1.132170 1.199590 1.297387
Pattern_2 1.295122 1.354753 1.298167 1.317926 1.267680 1.281588
Pattern_2 1.291881 1.276216 1.177153 1.092370 1.052870 0.912232
Pattern_2 0.936249 0.834662 0.649881 0.683671 0.697125 0.661034
Pattern_2 0.692135 0.712526 0.704722 0.828686 0.876437 1.062043
Pattern_2 1.060791 1.226249 1.371691 1.432181 1.567982 1.542441
Pattern_2 1.532915 1.712600 1.480792 1.615731 1.609969 1.567407
Pattern_2 1.331805 1.332626 1.413812 1.321946 1.437258 1.200619
Pattern_2 1.258587 1.257784 1.300337 1.298425 1.301800 1.307390
Pattern_2 1.186168 1.317556 1.182285 1.217556 1.201501 1.312693
Pattern_2 1.154599 1.259669 1.103718 1.155543 1.044899 0.974503
Pattern_2 0.895911 0.886171 0.751998 0.769086 0.711788 0.710102
Pattern_2 0.679693 0.661591 0.597670 0.671692 0.779715 0.762018
Pattern_2 0.962078 0.990541 1.095719 1.053143 1.118487 1.390391
Pattern_2 1.388414 1.283247 1.441815 1.257658 1.472486 1.408669
Pattern_2 1.409477 1.354457 1.316078 1.289680 1.361714 1.216568
Pattern_2 1.292324 1.264676 1.334305 1.086038 1.284007 1.214762
Pattern_2 1.234916 1.201323 1.241509 1.244902 1.176366 1.162413
Pattern_2 1.198531 1.153389 1.035805 0.990267 0.930947 0.927814
Pattern_2 0.873576 0.884167 0.814653 0.726626 0.730932 0.668343
Pattern_2 0.689856 0.668234 0.705289 0.662791 0.711968 0.652758
Pattern_2 0.738007 0.807776 0.842757 0.894893 1.042260 1.196429
Pattern_2 1.046875 1.211815 1.193627 1.358884 1.335769 1.346567
Pattern_2 1.313252 1.257166 1.202160 1.254640 1.192985 1.295943
Pattern_2 1.154902 1.087905 1.124947 1.089646 1.288715 1.147134
Pattern_2 1.228162 1.146256 1.244691 1.302112 1.274490 1.227442
Pattern_2 1.293892 1.182554 1.132862 1.052298 1.011644 0.940650
Pattern_2 0.893338 0.794954 0.706204 0.656921 0.630257 0.608635
Pattern_2 0.604099 0.650469 0.658306 0.728587 0.874142 0.916160
Pattern_2 0.988863 1.121389 1.101359 1.278720 1.339717 1.525278
Pattern_2 1.570518 1.506732 1.537837 1.720921 1.701223 1.472152
Pattern_2 1.477261 1.386966 1.377096 1.243495 1.174795 1.187510
Pattern_2 1.128495 1.206790 1.125638 1.173988 1.207421 1.208378
Pattern_2 1.369825 1.211648 1.315773 1.337273 1.281895 1.381557
Pattern_2 1.318498 1.231699 1.188446 1.317015 1.134093 0.999955
Pattern_2 0.909591 0.829900 0.762973 0.723559 0.652246 0.609118
Pattern_2 0.628999 0.629163 0.742073 0.677003 0.828315 0.863457
Pattern_2 0.950692 1.082398 1.268555 1.200993 1.294791 1.421988
Pattern_2 1.526594 1.423171 1.473146 1.416059 1.483042 1.393815
Pattern_2 1.385737 1.451431 1.322121 1.248778 1.206586 1.135050
Pattern_2 1.320967 1.152006 1.137445 1.138200 1.283254 1.300219
Pattern_2 1.187244 1.328116 1.309251 1.347039 1.372206 1.412474
Pattern_2 1.373796 1.337244 1.134809 1.192782 1.174390 0.930937
Pattern_2 0.852731 0.800557 0.670442 0.667604 0.594431 0.662513
Pattern_2 0.673909 0.675937 0.654484 0.764810 0.868368 0.898724
Pattern_2 1.042561 1.154628 1.228371 1.370455 1.420629 1.415974
Pattern_2 1.497053 1.539335 1.585745 1.319301 1.443688 1.499344
Pattern_2 1.251666 1.467886 1.370529 1.364855 1.271351 1.301251
Pattern_2 1.160545 1.103732 1.180798 1.231376 1.236247 1.180848
Pattern_2 1.250737 1.332290 1.296254 1.327313 1.280170 1.275450
Pattern_2 1.278270 1.308629 1.293993 1.122840 1.150619 1.080623
Pattern_2 0.893893 0.793677 0.726852 0.703231 0.595950 0.649519
Pattern_2 0.668556 0.693665 0.728760 0.816143 0.857600 0.958157
Pattern_2 1.012300 1.183333 1.203014 1.338865 1.440654 1.396170
Pattern_2 1.371361 1.561819 1.533255 1.519561 1.373852 1.443939
Pattern_2 1.398222 1.380547 1.299948 1.215298 1.163508 1.181766
Pattern_2 1.132000 1.234052 1.165657 1.256465 1.308443 1.129047
Pattern_2 1.268905 1.282653 1.388981 1.371876 1.294748 1.433864
Pattern_2 1.403530 1.266694 1.338012 1.100090 1.031131 0.977653
Pattern_2 0.968734 0.833141 0.836876 0.704215 0.699419 0.613943
Pattern_2 0.672246 0.678217 0.750810 0.759354 0.846143 1.056950
Pattern_2 1.141472 1.157749 1.420640 1.278677 1.460610 1.542473
Pattern_2 1.778341 1.711260 1.693508 1.752168 1.671809 1.566589
Pattern_2 1.452883 1.420327 1.460699 1.560599 1.304487 1.310886
Pattern_2 1.246661 1.382784 1.177307 1.345448 1.229055 1.286897
Pattern_2 1.264895 1.335541 1.339113 1.241651 1.233736 1.292015
Pattern_2 1.206807 1.126835 1.191820 1.065548 1.053290 1.064233
Pattern_2 0.920452 0.917296 0.860102 0.863761 0.785103 0.766297
Pattern_2 0.733603 0.656474 0.714300 0.709675 0.745678 0.743990
Pattern_2 0.880232 0.963786 0.983727 0.987948 1.182504 1.391515
Pattern_2 1.292696 1.469940 1.374496 1.331058 1.410064 1.448390
Pattern_2 1.568154 1.344238 1.300905 1.271361 1.249628 1.246218
Pattern_2 1.280689 1.214562 1.304777 1.274928 1.388705 1.281567
Pattern_2 1.348565 1.271602 1.342116 1.246519 1.182687 1.328988
Pattern_2 1.180382 1.016150 1.006265 1.091926 0.926404 0.837188
Pattern_2 0.906890

Pattern_3 0.754989 0.692156 0.642037 0.629941 0.566716 0.558545
Pattern_3 0.530975 0.472467 0.513380 0.507029 0.508410 0.580485
Pattern_3 0.654240 0.755712 0.876278 0.888018 0.880271 1.121624
Pattern_3 1.084496 1.226527 1.293611 1.226861 1.279869 1.228016
Pattern_3 1.404828 1.367185 1.321411 1.333212 1.251632 1.167232
Pattern_3 1.218190 1.162069 1.141756 1.163606 1.121629 1.195055
Pattern_3 1.058763 1.093059 1.280814 1.307410 1.340957 1.227246
Pattern_3 1.197579 1.125364 1.073117 0.940292 0.914110 0.797243
Pattern_3 0.742486 0.580827 0.598342 0.479451 0.479042 0.456902
Pattern_3 0.393050 0.464874 0.525639 0.571495 0.682956 0.775418
Pattern_3 0.885222 1.064495 1.127153 1.326841 1.360702 1.475479
Pattern_3 1.510568 1.725465 1.802579 1.767324 1.689001 1.584738
Pattern_3 1.665121 1.396160 1.500594 1.378478 1.298457 1.128532
Pattern_3 1.134926 1.137660 1.165194 1.096094 1.163603 1.155714
Pattern_3 1.163914 1.326651 1.353444 1.445020 1.391813 1.241609
Pattern_3 1.433222 1.215262 1.125170 1.178225 1.052361 0.900504
Pattern_3 0.767158 0.675277 0.594948 0.553612 0.458112 0.463156
Pattern_3 0.433966 0.491814 0.560206 0.640189 0.750785 0.814680
Pattern_3 0.987304 1.142530 1.082136 1.273309 1.317311 1.425947
Pattern_3 1.408779 1.579240 1.398267 1.546949 1.705475 1.666442
Pattern_3 1.528890 1.375476 1.252337 1.355457 1.267984 1.076871
Pattern_3 1.119677 1.089517 1.052513 1.187182 1.256040 1.264248
Pattern_3 1.329816 1.457124 1.388445 1.486867 1.398891 1.441247
Pattern_3 1.276302 1.291232 1.265353 1.106368 0.898056 0.909219
Pattern_3 0.762923 0.719922 0.562902 0.492695 0.446651 0.423442
Pattern_3 0.418629 0.507952 0.525291 0.670893 0.741082 0.890618
Pattern_3 0.992215 1.049481 1.310323 1.370703 1.483638 1.602803
Pattern_3 1.617095 1.567980 1.608202 1.547457 1.622991 1.489544
Pattern_3 1.518672 1.552783 1.366626 1.348552 1.506038 1.222899
Pattern_3 1.274159 1.139287 1.444981 1.148477 1.239448 1.369363
Pattern_3 1.201807 1.215623 1.355433 1.327178 1.351154 1.399603
Pattern_3 1.277243 1.264116 1.081497 1.106509 1.035858 0.899052
Pattern_3 0.769386 0.761615 0.591780 0.502172 0.486466 0.421280
Pattern_3 0.468563 0.513037 0.512878 0.624591 0.695819 0.769185
Pattern_3 0.959701 1.111254 1.125748 1.333209 1.377225 1.423131
Pattern_3 1.516445 1.615865 1.639395 1.594696 1.499240 1.510137
Pattern_3 1.416840 1.319900 1.322374 1.434566 1.340641 1.214978
Pattern_3 1.310183 1.384010 1.246304 1.173466 1.168157 1.239918
Pattern_3 1.234557 1.320909 1.258676 1.243850 1.431799 1.314492
Pattern_3 1.344912 1.282270 1.090178 1.042487 1.008087 0.957253
Pattern_3 0.786927 0.729154 0.617101 0.569982 0.534511 0.452634
Pattern_3 0.520984 0.541911 0.599266 0.684677 0.826576 1.033945
Pattern_3 1.069894 1.224478 1.476852 1.673035 1.578572 1.585265
Pattern_3 1.832668 1.724977 1.852760 1.794354 1.713359 1.677484
Pattern_3 1.561823 1.462451 1.455064 1.413748 1.424869 1.412199
Pattern_3 1.272191 1.363810 1.278322 1.288323 1.224279 1.446286
Pattern_3 1.379555 1.326227 1.373412 1.407044 1.279692 1.238705
Pattern_3 1.343211 1.209658 1.077598 1.080699 1.017959 0.954592
Pattern_3 0.874250 0.797964 0.663589 0.642133 0.586088 0.505626
Pattern_3 0.454597 0.538836 0.544527 0.582572 0.599424 0.684348
Pattern_3 0.760990 0.896811 1.053624 1.148950 1.145595 1.268364
Pattern_3 1.359275 1.420533 1.525137 1.566662 1.388392 1.445902
Pattern_3 1.511044 1.441353 1.474059 1.473620 1.329018 1.274797
Pattern_3 1.308010 1.294677 1.181930 1.231688 1.261565 1.335859
Pattern_3 1.187377 1.330834 1.287986 1.277354 1.281045 1.247981
Pattern_3 1.120498 1.140539 1.023548 0.995315 0.883284 0.767028
Pattern_3 0.758164 0.694462 0.629327 0.630860 0.537681 0.541591
Pattern_3 0.498663 0.518705 0.504779 0.531275 0.554451 0.622263
Pattern_3 0.636974 0.764955 0.872076 0.930891 1.048786 1.114512
Pattern_3 1.193037 1.238712 1.339782 1.405670 1.341561 1.376454
Pattern_3 1.398199 1.512989 1.375727 1.318281 1.367831 1.255079
Pattern_3 1.158764 1.034236 1.234323 1.297138 1.288585 1.140601
Pattern_3 1.306361 1.170910 1.316059 1.301660 1.287627 1.353682
Pattern_3 1.204093 0.993936 1.041587 1.083930 0.959500 0.777377
Pattern_3 0.726497 0.715941 0.609638 0.496830 0.500039 0.450153
Pattern_3 0.422125 0.463664 0.532460 0.596153 0.660507 0.863001
Pattern_3 0.947409 1.055283 1.232729 1.404532 1.465397 1.467644
Pattern_3 1.700974 1.687636 1.572035 1.659373 1.685271 1.657896
Pattern_3 1.647426 1.505472 1.406810 1.278656 1.310691 1.295178
Pattern_3 1.130518 1.080177 1.158027 1.000543 1.215003 1.230343
Pattern_3 1.250827 1.223464 1.285464 1.405060 1.276227 1.334180
Pattern_3 1.472643 1.181979 1.256657 1.182669 1.033917 0.895652
Pattern_3 0.799392 0.695648 0.591775 0.558765 0.535235 0.484389
Pattern_3 0.433666 0.482674 0.585647 0.636719 0.757054 0.840082
Pattern_3 0.981724 1.105826 1.188562 1.402891 1.449195 1.386593
Pattern_3 1.550897 1.698256 1.772297 1.594697 1.712990 1.524912
Pattern_3 1.489963 1.464767 1.453501 1.409372 1.331232 1.188671
Pattern_3 1.261620 1.144566 1.148019 1.226822 1.139359 1.345109
Pattern_3 1.331797 1.411752 1.342206 1.383071 1.438390 1.409093
Pattern_3 1.301553 1.192303 1.326812 1.030781 1.028935 0.912710
Pattern_3 0.773757 0.694301 0.594720 0.521474 0.472360 0.470916
Pattern_3 0.466823 0.451791 0.545849 0.675057 0.745397 0.917815
Pattern_3 1.048132 1.164674 1.238595 1.407883 1.316402 1.499479
Pattern_3 1.591072 1.924124 1.632330 1.779906 1.494312 1.529805
Pattern_3 1.745575 1.471458 1.409485 1.359634 1.244739 1.283216
Pattern_3 1.292509 1.323100 1.284297 1.141959 1.263795 1.250474
Pattern_3 1.290351 1.370497 1.434742 1.405064 1.340037 1.322807
Pattern_3 1.402009 1.218776 1.255384 1.125955 1.059714 0.906635
Pattern_3 0.863727 0.712874 0.634434 0.534161 0.525202 0.463357
Pattern_3 0.465989 0.520302 0.561315 0.683189 0.758500 0.891354
Pattern_3 1.086488 1.219985 1.211241 1.317023 1.478236 1.596020
Pattern_3 1.673658 1.598873 1.549922 1.628871 1.663018 1.471947
Pattern_3 1.433396 1.487112 1.425545 1.269681 1.261048 1.170953
Pattern_3 1.194554 1.334631 1.319458 1.252285 1.346722 1.110542
Pattern_3 1.302216 1.357905 1.392901 1.429996 1.306543 1.191178
Pattern_3 1.296104 1.294580 1.215839 1.167368 0.915134 0.882142
Pattern_3 0.826132 0.687734 0.650427 0.567614 0.502400 0.497384
Pattern_3 0.520842 0.541490 0.590485 0.761172 0.871179 0.929270
Pattern_3 1.216278 1.283422 1.521577 1.564119 1.751990 1.677295
Pattern_3 1.859332 1.835243 1.800341 1.929114 1.702369 1.803568
Pattern_3 1.672018 1.573010 1.460270 1.536285 1.338185 1.461837
Pattern_3 1.304749 1.227291 1.326696 1.315113 1.357053 1.333790
Pattern_3 1.344420 1.345696 1.398135 1.472423 1.289651 1.277230
Pattern_3 1.189136 1.214917 1.188125 1.135514 1.019156 1.000240
Pattern_3 0.765600 0.790959 0.708222 0.669286 0.606938 0.537466
Pattern_3 0.533038 0.512933 0.539109 0.512934 0.652878 0.707338
Pattern_3 0.805273 0.938835 0.970964 1.106057 1.273639 1.243553
Pattern_3 1.460211 1.403794 1.542457 1.635302 1.571386 1.538207
Pattern_3 1.625489 1.499960 1.379625 1.441585 1.349106 1.323391
Pattern_3 1.317534 1.333069 1.425505 1.385306 1.407009 1.260936
Pattern_3 1.295284 1.388915 1.345016 1.356606 1.251813 1.183965
Pattern_3 1.117207 1.173914 0.998801 1.033774 0.823909 0.845562
Pattern_3 0.847888

Pattern_4 0.750056 0.736044 0.691408 0.628306 0.608742 0.583503
Pattern_4 0.576677 0.587782 0.572616 0.585762 0.591119 0.622795
Pattern_4 0.713455 0.761210 0.788330 0.909389 1.000782 0.934837
Pattern_4 1.147034 1.180782 1.240377 1.216211 1.305025 1.344649
Pattern_4 1.266973 1.361710 1.341750 1.236346 1.271951 1.101710
Pattern_4 1.117835 1.194696 1.152953 1.016451 1.116096 1.218488
Pattern_4 1.107219 1.283378 1.205908 1.205306 1.220751 1.245060
Pattern_4 1.176889 1.156330 1.157714 1.043918 0.928681 0.931376
Pattern_4 0.792042 0.722838 0.628138 0.521763 0.550505 0.535389
Pattern_4 0.503598 0.501421 0.612366 0.704895 0.721337 0.900028
Pattern_4 1.023472 1.130658 1.146124 1.301990 1.519004 1.636014
Pattern_4 1.584217 1.528357 1.599225 1.566317 1.574194 1.498237
Pattern_4 1.437981 1.316583 1.283714 1.247422 1.290422 1.321521
Pattern_4 1.150184 1.158501 1.065659 1.055829 1.130283 1.128060
Pattern_4 1.302734 1.291646 1.257419 1.313131 1.251724 1.465773
Pattern_4 1.305761 1.171555 1.070894 1.130857 0.987823 0.801073
Pattern_4 0.835288 0.687757 0.741618 0.573465 0.566214 0.512317
Pattern_4 0.529329 0.567192 0.603911 0.660030 0.758256 0.870992
Pattern_4 0.983808 1.015140 1.214820 1.357165 1.387857 1.284395
Pattern_4 1.542734 1.563466 1.528848 1.622623 1.556338 1.445634
Pattern_4 1.410496 1.348448 1.436356 1.270473 1.127322 1.153900
Pattern_4 1.299963 1.202096 1.120931 1.150749 1.207803 1.325792
Pattern_4 1.270825 1.364464 1.303377 1.221694 1.369413 1.387442
Pattern_4 1.316483 1.323795 1.134494 1.105086 1.019578 0.919074
Pattern_4 0.788126 0.757566 0.641235 0.575011 0.502729 0.514407
Pattern_4 0.526319 0.569245 0.592137 0.672829 0.836986 0.909071
Pattern_4 0.922829 1.061185 1.242438 1.264344 1.396443 1.376408
Pattern_4 1.583436 1.589880 1.533671 1.629711 1.502647 1.408766
Pattern_4 1.531485 1.445757 1.444496 1.322449 1.286561 1.266555
Pattern_4 1.383691 1.157179 1.346653 1.322392 1.351230 1.289088
Pattern_4 1.306746 1.235675 1.319445 1.381671 1.313440 1.358707
Pattern_4 1.277790 1.223276 1.222550 1.111701 1.062204 0.933165
Pattern_4 0.862667 0.699862 0.612492 0.529823 0.549169 0.482595
Pattern_4 0.564699 0.553696 0.578917 0.669925 0.772057 0.814958
Pattern_4 1.047037 1.167008 1.106663 1.344198 1.326258 1.426085
Pattern_4 1.530639 1.520082 1.488004 1.693876 1.482454 1.403501
Pattern_4 1.307441 1.368888 1.319827 1.330510 1.316302 1.190724
Pattern_4 1.177749 1.287979 1.152362 1.303448 1.120259 1.239332
Pattern_4 1.206677 1.383164 1.431242 1.407401 1.327401 1.397392
Pattern_4 1.302703 1.186570 1.188498 1.111460 0.931903 1.005537
Pattern_4 0.815484 0.729046 0.641926 0.570538 0.573276 0.532996
Pattern_4 0.563036 0.610726 0.654378 0.662287 0.840761 0.975043
Pattern_4 1.148882 1.204188 1.423308 1.412999 1.530517 1.673420
Pattern_4 1.741060 1.757252 1.820198 1.673413 1.661150 1.559576
Pattern_4 1.543049 1.499218 1.449014 1.412533 1.186382 1.268368
Pattern_4 1.284967 1.296991 1.341038 1.238984 1.421193 1.345665
Pattern_4 1.379256 1.337140 1.374012 1.303337 1.411460 1.346436
Pattern_4 1.174865 1.136780 1.028648 1.124934 0.930404 0.927004
Pattern_4 0.873901 0.813112 0.740054 0.702440 0.643655 0.605895
Pattern_4 0.594817 0.614844 0.640817 0.662604 0.625082 0.778438
Pattern_4 0.867972 0.914656 1.060735 1.248449 1.198097 1.336094
Pattern_4 1.330969 1.391278 1.492331 1.492173 1.358722 1.304638
Pattern_4 1.493743 1.378541 1.281287 1.354378 1.407959 1.264300
Pattern_4 1.520948 1.270395 1.248596 1.361192 1.289018 1.374854
Pattern_4 1.326959 1.237973 1.320379 1.170966 1.153354 1.148889
Pattern_4 1.183088 1.077955 1.078056 0.985107 0.944130 0.914678
Pattern_4 0.733224 0.688296 0.645609 0.666149 0.623696 0.551105
Pattern_4 0.592086 0.608629 0.562074 0.563990 0.614322 0.707299
Pattern_4 0.752602 0.711280 0.834610 0.914369 0.977168 1.134303
Pattern_4 1.182750 1.282539 1.312287 1.267310 1.323520 1.384363
Pattern_4 1.347166 1.300293 1.373263 1.169072 1.213025 1.168876
Pattern_4 1.211187 1.248738 1.144546 1.119502 1.213116 1.167090
Pattern_4 1.215957 1.289424 1.196646 1.267285 1.275613 1.311585
Pattern_4 1.274092 1.167356 1.094259 1.026668 0.978642 0.891159
Pattern_4 0.784114 0.635965 0.607055 0.568741 0.494427 0.505967
Pattern_4 0.532832 0.614673 0.609531 0.602583 0.799056 0.777743
Pattern_4 0.955324 1.104384 1.238215 1.316650 1.483125 1.414997
Pattern_4 1.508218 1.694632 1.668907 1.602518 1.587440 1.545515
Pattern_4 1.674583 1.436070 1.301888 1.414666 1.244178 1.297732
Pattern_4 1.255149 1.128495 1.199728 1.195483 1.161779 1.146037
Pattern_4 1.136912 1.368838 1.280643 1.397691 1.372225 1.377725
Pattern_4 1.330225 1.183662 1.264601 1.113670 1.041470 0.968197
Pattern_4 0.882465 0.725319 0.651644 0.584316 0.537126 0.584675
Pattern_4 0.547916 0.556208 0.584016 0.629692 0.761576 0.797202
Pattern_4 1.024939 1.062396 1.215077 1.320958 1.292928 1.349156
Pattern_4 1.437392 1.490203 1.566011 1.500907 1.532916 1.357798
Pattern_4 1.690871 1.475383 1.317044 1.298217 1.254683 1.158320
Pattern_4 1.267092 1.166720 1.172427 1.203247 1.300184 1.311625
Pattern_4 1.408711 1.380844 1.411713 1.310338 1.468112 1.465590
Pattern_4 1.341835 1.197592 1.130829 1.077718 0.983989 0.858954
Pattern_4 0.842119 0.715763 0.684033 0.596348 0.561330 0.512513
Pattern_4 0.541000 0.593278 0.634056 0.673931 0.820518 0.964676
Pattern_4 1.026567 1.141922 1.106615 1.369346 1.275559 1.553150
Pattern_4 1.459636 1.507382 1.578213 1.593292 1.438119 1.509453
Pattern_4 1.473524 1.429969 1.363028 1.436794 1.319529 1.290239
Pattern_4 1.188017 1.266171 1.364113 1.265072 1.260345 1.414329
Pattern_4 1.341831 1.296120 1.242160 1.448589 1.344040 1.311044
Pattern_4 1.337821 1.297519 1.179239 1.163717 1.108055 0.872218
Pattern_4 0.800571 0.779740 0.653252 0.611779 0.550513 0.503707
Pattern_4 0.508538 0.534144 0.651027 0.710078 0.768325 0.900317
Pattern_4 0.964214 1.101863 1.246603 1.339296 1.428155 1.491293
Pattern_4 1.351603 1.511758 1.585704 1.579602 1.537439 1.519796
Pattern_4 1.435508 1.436120 1.335276 1.214295 1.251141 1.269317
Pattern_4 1.308174 1.194774 1.250966 1.349141 1.293146 1.390040
Pattern_4 1.321524 1.322542 1.393526 1.371032 1.296894 1.344192
Pattern_4 1.394555 1.164508 1.242567 1.097913 1.123030 1.026025
Pattern_4 0.844581 0.879964 0.711985 0.685962 0.534767 0.563052
Pattern_4 0.581411 0.621012 0.706223 0.732035 0.948784 1.031428
Pattern_4 1.238948 1.351047 1.586532 1.501935 1.586692 1.570089
Pattern_4 1.699632 1.753127 1.619392 1.871967 1.663796 1.807852
Pattern_4 1.603098 1.555021 1.502898 1.388008 1.363243 1.377499
Pattern_4 1.440734 1.179060 1.341259 1.415887 1.330144 1.274849
Pattern_4 1.368767 1.411737 1.394580 1.386710 1.347009 1.263687
Pattern_4 1.299617 1.138384 1.187513 1.032918 1.077076 1.054255