; Filename: ../LeakDB/CCWI-WDSA2018/Dataset_Generator/networks/Hanoi_CMH.inp
; WNTR: 0.3.1
; Created: 2022-05-23 09:49:59
[TITLE]

[JUNCTIONS]
;ID                      Elevation       Demand Pattern                 
 2                                 30          247.22 Pattern_2                  ;
 3                                 30          236.11 Pattern_3                  ;
 4                                 30           36.11 Pattern_4                  ;
 5                                 30          201.39 Pattern_5                  ;
 6                                 30          279.17 Pattern_6                  ;
 7                                 30             375 Pattern_7                  ;
 8                                 30          152.78 Pattern_8                  ;
 9                                 30          145.83 Pattern_9                  ;
 10                                30          145.83 Pattern_10                 ;
 11                                30          138.89 Pattern_11                 ;
 12                                30          155.56 Pattern_12                 ;
 13                                30          261.11 Pattern_13                 ;
 14                                30          170.83 Pattern_14                 ;
 15                                30           77.78 Pattern_15                 ;
 16                                30           86.11 Pattern_16                 ;
 17                                30          240.28 Pattern_17                 ;
 18                                30          373.61 Pattern_18                 ;
 19                                30           16.67 Pattern_19                 ;
 20                                30          354.17 Pattern_20                 ;
 21                                30          258.33 Pattern_21                 ;
 22                                30          134.72 Pattern_22                 ;
 23                                30          290.28 Pattern_23                 ;
 24                                30          227.78 Pattern_24                 ;
 25                                30           47.22 Pattern_25                 ;
 26                                30             250 Pattern_26                 ;
 27                                30          102.78 Pattern_27                 ;
 28                                30           80.56 Pattern_28                 ;
 29                                30             100 Pattern_29                 ;
 30                                30             100 Pattern_30                 ;
 31                                30           29.17 Pattern_31                 ;
 32                                30          223.61 Pattern_32                 ;

[RESERVOIRS]
;ID                                   Head                  Pattern
 1                                100                            ;

[TANKS]
;ID                              Elevation           Init Level            Min Level            Max Level             Diameter           Min Volume Volume Curve         Overflow            

[PIPES]
;ID                   Node1                Node2                              Length             Diameter            Roughness           Minor Loss               Status
 1                    1                    2                                100            1016             130               0                 Open   ;
 2                    2                    3                               1350            1016             130               0                 Open   ;
 3                    3                    4                                900            1016             130               0                 Open   ;
 4                    4                    5                               1150            1016             130               0                 Open   ;
 5                    5                    6                               1450            1016             130               0                 Open   ;
 6                    6                    7                                450            1016             130               0                 Open   ;
 7                    7                    8                                850            1016             130               0                 Open   ;
 8                    8                    9                                850            1016             130               0                 Open   ;
 9                    9                    10                               800            1016             130               0                 Open   ;
 10                   10                   11                               950             762             130               0                 Open   ;
 11                   11                   12                              1200             762             130               0                 Open   ;
 12                   12                   13                              3500           609.6             130               0                 Open   ;
 13                   10                   14                               800           406.4             130               0                 Open   ;
 14                   14                   15                               500           406.4             130               0                 Open   ;
 15                   15                   16                               550           304.8             130               0                 Open   ;
 16                   17                   16                              2730           406.4             130               0                 Open   ;
 17                   17                   18                              1750             508             130               0                 Open   ;
 18                   18                   19                               800           609.6             130               0                 Open   ;
 19                   19                   3                                400           609.6             130               0                 Open   ;
 20                   3                    20                              2200            1016             130               0                 Open   ;
 21                   20                   21                              1500             508             130               0                 Open   ;
 22                   21                   22                               500           304.8             130               0                 Open   ;
 23                   20                   23                              2650            1016             130               0                 Open   ;
 24                   23                   24                              1230             762             130               0                 Open   ;
 25                   24                   25                              1300             762             130               0                 Open   ;
 26                   26                   25                               850             508             130               0                 Open   ;
 27                   27                   26                               300           304.8             130               0                 Open   ;
 28                   16                   27                               750           304.8             130               0                 Open   ;
 29                   23                   28                              1500           406.4             130               0                 Open   ;
 30                   28                   29                              2000           406.4             130               0                 Open   ;
 31                   29                   30                              1600           304.8             130               0                 Open   ;
 32                   30                   31                               150           304.8             130               0                 Open   ;
 33                   32                   31                               860           406.4             130               0                 Open   ;
 34                   25                   32                               950             508             130               0                 Open   ;

[PUMPS]
;ID                   Node1                Node2                Properties          

[VALVES]
;ID                   Node1                Node2                            Diameter Type              Setting           Minor Loss

[TAGS]
;type      name       tag       

[DEMANDS]
;ID        Demand     Pattern   

[STATUS]
;ID        Setting   
[PATTERNS]
;ID        Multipliers

Pattern_2 0.772175 0.714775 0.703536 0.641581 0.622507 0.529532
Pattern_2 0.568367 0.565974 0.520334 0.520644 0.574868 0.613898
Pattern_2 0.654937 0.726832 0.735548 0.893723 0.911381 1.018570
Pattern_2 1.121291 1.131072 1.284160 1.297769 1.367498 1.283214
Pattern_2 1.304996 1.288661 1.247953 1.240556 1.209746 1.194395
Pattern_2 1.258628 1.172365 1.190009 1.146002 1.190713 1.173552
Pattern_2 1.274558 1.164667 1.175244 1.352127 1.186087 1.260107
Pattern_2 1.208225 1.162426 1.108077 1.015968 0.919877 0.852687
Pattern_2 0.852545 0.670651 0.590634 0.544431 0.511632 0.479543
Pattern_2 0.489583 0.528655 0.533518 0.630493 0.737436 0.815084
Pattern_2 0.896777 1.089165 1.135762 1.226684 1.314794 1.318413
Pattern_2 1.615878 1.586294 1.714157 1.596214 1.446491 1.627261
Pattern_2 1.440625 1.376202 1.315527 1.329172 1.245127 1.183896
Pattern_2 1.229238 1.125342 1.164462 1.151983 1.164484 1.249065
Pattern_2 1.226507 1.281290 1.366717 1.281744 1.494770 1.342421
Pattern_2 1.264391 1.269233 1.195985 1.075381 1.029284 0.940485
Pattern_2 0.828724 0.654564 0.660497 0.585859 0.484058 0.517563
Pattern_2 0.494312 0.529821 0.567589 0.634006 0.701956 0.815573
Pattern_2 0.994792 1.085341 1.193400 1.301536 1.297121 1.438736
Pattern_2 1.479705 1.594774 1.450660 1.563036 1.459579 1.493857
Pattern_2 1.369670 1.330355 1.311361 1.198695 1.281977 1.298347
Pattern_2 1.169097 1.095329 1.181226 1.195433 1.287055 1.189207
Pattern_2 1.321368 1.442760 1.370446 1.356446 1.323386 1.399300
Pattern_2 1.237354 1.347233 1.262803 1.131052 0.982025 0.910716
Pattern_2 0.799960 0.686976 0.596556 0.529573 0.520083 0.497697
Pattern_2 0.529595 0.519077 0.622291 0.693850 0.799615 0.840519
Pattern_2 0.931044 1.148910 1.171892 1.193493 1.576703 1.362125
Pattern_2 1.505147 1.433936 1.609140 1.561309 1.622829 1.628975
Pattern_2 1.413056 1.406847 1.434608 1.416683 1.350690 1.261588
Pattern_2 1.348867 1.195976 1.209576 1.165813 1.161020 1.319366
Pattern_2 1.405277 1.225764 1.259604 1.300450 1.400492 1.334153
Pattern_2 1.354751 1.292261 1.150293 1.174092 1.036120 0.967933
Pattern_2 0.803221 0.754631 0.667365 0.577825 0.536088 0.493622
Pattern_2 0.484317 0.541399 0.646623 0.670296 0.753508 0.909855
Pattern_2 1.009185 1.161777 1.209840 1.298314 1.361012 1.515453
Pattern_2 1.515649 1.550259 1.543758 1.590988 1.449129 1.366178
Pattern_2 1.320763 1.129169 1.306161 1.234778 1.185012 1.210548
Pattern_2 1.335401 1.235011 1.211335 1.248626 1.274176 1.264435
Pattern_2 1.417530 1.306113 1.274793 1.412247 1.345662 1.400478
Pattern_2 1.382018 1.310728 1.118143 1.194349 1.128554 0.975405
Pattern_2 0.844973 0.659847 0.655598 0.588412 0.569876 0.522648
Pattern_2 0.525396 0.580134 0.641588 0.706467 0.813106 0.972318
Pattern_2 1.056780 1.199422 1.419992 1.440051 1.621004 1.651857
Pattern_2 1.629600 1.822891 1.749305 1.830046 1.697833 1.541734
Pattern_2 1.455727 1.537046 1.460130 1.260626 1.369501 1.274799
Pattern_2 1.268561 1.154369 1.284198 1.276845 1.339454 1.374338
Pattern_2 1.532908 1.361952 1.371053 1.261524 1.348819 1.205276
Pattern_2 1.264264 1.301451 1.176404 1.135437 1.039293 0.951974
Pattern_2 0.934727 0.862369 0.809712 0.656994 0.660064 0.600955
Pattern_2 0.617690 0.549620 0.555543 0.610828 0.628952 0.759251
Pattern_2 0.852434 0.931402 1.008433 1.143506 1.200020 1.328419
Pattern_2 1.198056 1.342074 1.323936 1.408452 1.498223 1.496398
Pattern_2 1.427628 1.357335 1.342341 1.336975 1.290407 1.318122
Pattern_2 1.366883 1.288707 1.434565 1.243029 1.305294 1.356173
Pattern_2 1.323233 1.279440 1.277223 1.215803 1.346802 1.153038
Pattern_2 1.114456 1.055548 1.010517 1.036506 0.861166 0.916391
Pattern_2 0.839431 0.744286 0.647257 0.670754 0.586623 0.589659
Pattern_2 0.503506 0.527764 0.583954 0.535883 0.577987 0.663353
Pattern_2 0.680997 0.705892 0.789555 0.808393 0.918499 1.079149
Pattern_2 1.024115 1.250702 1.106203 1.318746 1.208540 1.396739
Pattern_2 1.404326 1.336052 1.309203 1.279995 1.208410 1.227106
Pattern_2 1.335927 1.249412 1.183191 1.203757 1.202886 1.221670
Pattern_2 1.244527 1.260457 1.277867 1.375179 1.275346 1.195098
Pattern_2 1.128773 1.127702 1.109983 0.926305 0.951746 0.882124
Pattern_2 0.742367 0.675968 0.605171 0.496586 0.529770 0.474188
Pattern_2 0.517906 0.547502 0.563070 0.580388 0.688561 0.826278
Pattern_2 1.018073 1.015130 1.189425 1.365827 1.481796 1.485836
Pattern_2 1.603129 1.603907 1.563567 1.550313 1.531108 1.489242
Pattern_2 1.445275 1.478169 1.332743 1.261340 1.307787 1.149034
Pattern_2 1.057321 1.121179 1.122196 1.246421 1.219472 1.212985
Pattern_2 1.335238 1.472286 1.441096 1.263214 1.387504 1.375160
Pattern_2 1.407779 1.340393 1.328034 1.194818 1.106628 0.930232
Pattern_2 0.828392 0.727213 0.649834 0.612810 0.517442 0.531928
Pattern_2 0.527324 0.512960 0.643762 0.611252 0.726686 0.792135
Pattern_2 0.971995 1.063668 1.156612 1.299720 1.427057 1.379303
Pattern_2 1.454252 1.603348 1.644778 1.718668 1.666249 1.554824
Pattern_2 1.510367 1.415990 1.381699 1.237604 1.265954 1.086053
Pattern_2 1.185264 1.189023 1.184067 1.105296 1.281486 1.261534
Pattern_2 1.330386 1.395921 1.544010 1.320563 1.392562 1.413329
Pattern_2 1.286091 1.243192 1.274700 1.098931 1.117151 0.946842
Pattern_2 0.772147 0.752142 0.626453 0.552820 0.526429 0.513507
Pattern_2 0.527437 0.536572 0.586464 0.620705 0.764174 0.808934
Pattern_2 0.979387 1.175272 1.198094 1.367581 1.370794 1.460124
Pattern_2 1.503027 1.626318 1.562331 1.525578 1.655199 1.492135
Pattern_2 1.397166 1.372946 1.406831 1.368050 1.326964 1.201159
Pattern_2 1.273460 1.260165 1.265622 1.317086 1.253874 1.321960
Pattern_2 1.491917 1.297637 1.232272 1.336195 1.397929 1.335983
Pattern_2 1.332878 1.355812 1.207351 1.156639 1.060755 0.887468
Pattern_2 0.846781 0.778840 0.621974 0.603663 0.542067 0.542067
Pattern_2 0.495997 0.571464 0.606292 0.690922 0.827172 1.000569
Pattern_2 0.972484 1.207084 1.281482 1.251703 1.449317 1.622133
Pattern_2 1.492774 1.362787 1.502155 1.616627 1.674950 1.421845
Pattern_2 1.404532 1.195472 1.250500 1.289765 1.179012 1.264035
Pattern_2 1.003334 1.247107 1.208238 1.318494 1.311837 1.222824
Pattern_2 1.285008 1.339159 1.359055 1.335395 1.491041 1.363482
Pattern_2 1.262731 1.301065 1.154373 1.153998 0.948426 0.891582
Pattern_2 0.877662 0.742817 0.702978 0.552677 0.542208 0.569372
Pattern_2 0.534743 0.539140 0.651396 0.786243 0.863820 0.953871
Pattern_2 1.130903 1.157231 1.358674 1.472314 1.612408 1.799365
Pattern_2 1.757636 1.786586 1.779509 1.863050 1.841952 1.645236
Pattern_2 1.550701 1.579257 1.407882 1.391171 1.379225 1.403116
Pattern_2 1.304385 1.412591 1.344141 1.281870 1.318286 1.345188
Pattern_2 1.299410 1.449745 1.269102 1.314528 1.299534 1.251825
Pattern_2 1.284997 1.219477 1.193150 1.100501 1.082626 1.021935
Pattern_2 0.914793 0.821955 0.729675 0.671569 0.655727 0.600211
Pattern_2 0.574594 0.583904 0.590303 0.630320 0.670073 0.733620
Pattern_2 0.801930 0.889136 0.955850 1.116876 1.296296 1.294223
Pattern_2 1.222181 1.414237 1.430958 1.418585 1.586913 1.407972
Pattern_2 1.271277 1.458629 1.390620 1.467047 1.319504 1.292542
Pattern_2 1.337077 1.285153 1.329761 1.318845 1.272098 1.190093
Pattern_2 1.216681 1.230807 1.303488 1.245786 1.150568 1.190635
Pattern_2 1.168373 1.180767 1.080301 1.053288 0.953946 0.893519
Pattern_2 0.894930

Pattern_3 0.807898 0.701342 0.667755 0.653484 0.557753 0.629558
Pattern_3 0.530473 0.551813 0.517754 0.596681 0.558533 0.628421
Pattern_3 0.709510 0.809072 0.829960 0.877869 0.968258 1.037585
Pattern_3 1.173201 1.199400 1.320847 1.285033 1.197257 1.367683
Pattern_3 1.307690 1.354496 1.213298 1.209450 1.102067 1.153534
Pattern_3 1.245642 1.023023 1.087706 1.212964 1.148705 1.265526
Pattern_3 1.204479 1.181831 1.326678 1.299878 1.203430 1.265872
Pattern_3 1.237003 1.151974 1.128272 1.055222 1.028921 0.842196
Pattern_3 0.855194 0.723298 0.665101 0.520013 0.508963 0.501997
Pattern_3 0.510475 0.472418 0.595630 0.644355 0.741465 0.856748
Pattern_3 0.912737 1.126247 1.174654 1.342900 1.358003 1.449757
Pattern_3 1.394542 1.493662 1.724870 1.685158 1.527834 1.500936
Pattern_3 1.501395 1.382727 1.318468 1.176106 1.147958 1.195189
Pattern_3 0.987998 0.968461 1.198575 1.135114 1.186825 1.153286
Pattern_3 1.225144 1.225114 1.279056 1.314621 1.267736 1.382377
Pattern_3 1.255663 1.309217 1.108915 1.144024 0.970826 0.880995
Pattern_3 0.822208 0.732153 0.651300 0.613895 0.577801 0.487147
Pattern_3 0.463464 0.520484 0.595878 0.659495 0.822428 0.912955
Pattern_3 0.914390 1.084534 1.273225 1.258181 1.306993 1.390225
Pattern_3 1.492929 1.546370 1.424049 1.397156 1.538593 1.512456
Pattern_3 1.436451 1.240312 1.268926 1.245664 1.270325 1.113096
Pattern_3 1.093904 1.116076 1.167939 1.219816 1.138574 1.283309
Pattern_3 1.352634 1.419519 1.343791 1.291898 1.297933 1.289116
Pattern_3 1.385501 1.270833 1.148615 1.099970 1.106517 0.928556
Pattern_3 0.872025 0.725173 0.680358 0.560442 0.549319 0.544804
Pattern_3 0.560052 0.556341 0.623335 0.658708 0.852505 0.915715
Pattern_3 1.029675 1.099522 1.190007 1.360250 1.446520 1.517998
Pattern_3 1.487152 1.683543 1.636003 1.516910 1.666937 1.563818
Pattern_3 1.478161 1.442174 1.380417 1.417062 1.221036 1.193539
Pattern_3 1.340883 1.189829 1.102399 1.188555 1.290645 1.281939
Pattern_3 1.258914 1.233618 1.313227 1.399184 1.547868 1.336636
Pattern_3 1.224128 1.369639 1.309331 1.104909 0.987402 0.946505
Pattern_3 0.902630 0.695827 0.588593 0.608537 0.527259 0.499480
Pattern_3 0.570721 0.577945 0.626409 0.678536 0.847088 0.890634
Pattern_3 1.032415 1.065395 1.196500 1.318852 1.453223 1.444992
Pattern_3 1.554895 1.527471 1.483910 1.641813 1.497153 1.389306
Pattern_3 1.294220 1.272249 1.193178 1.237371 1.137314 1.196808
Pattern_3 1.165180 1.141588 1.025348 1.169876 1.295178 1.405824
Pattern_3 1.320618 1.473783 1.252869 1.303777 1.267785 1.404920
Pattern_3 1.262472 1.255936 1.297313 1.218022 0.990942 0.891589
Pattern_3 0.833449 0.832004 0.648418 0.574343 0.560457 0.583492
Pattern_3 0.501540 0.553857 0.573745 0.804479 0.867778 0.952543
Pattern_3 1.277483 1.194339 1.277725 1.375515 1.631118 1.809055
Pattern_3 1.644932 1.659266 1.851059 1.679540 1.688856 1.461297
Pattern_3 1.527896 1.489460 1.403902 1.428011 1.266635 1.370651
Pattern_3 1.251260 1.407010 1.227005 1.288463 1.279219 1.330078
Pattern_3 1.409429 1.376610 1.307430 1.422824 1.235864 1.352036
Pattern_3 1.215321 1.347547 1.270387 1.099077 1.086391 0.990172
Pattern_3 0.877492 0.800104 0.724461 0.726605 0.656108 0.577546
Pattern_3 0.574791 0.572478 0.580610 0.581919 0.659773 0.713503
Pattern_3 0.883845 0.851624 0.826375 1.076341 1.251124 1.239751
Pattern_3 1.235281 1.328420 1.485592 1.440971 1.425078 1.517452
Pattern_3 1.497620 1.481277 1.345223 1.347903 1.308824 1.246798
Pattern_3 1.127765 1.334643 1.123087 1.320112 1.298892 1.471600
Pattern_3 1.340477 1.270844 1.352290 1.144122 1.300414 1.169031
Pattern_3 1.146824 1.070698 1.040953 1.032821 0.989036 0.890416
Pattern_3 0.841080 0.754176 0.766353 0.640251 0.641891 0.591155
Pattern_3 0.613901 0.558735 0.557404 0.606622 0.604623 0.670003
Pattern_3 0.690678 0.788835 0.818367 0.950610 0.927098 1.185882
Pattern_3 1.158720 1.221333 1.242044 1.319458 1.374404 1.452958
Pattern_3 1.314149 1.344565 1.293929 1.313480 1.213740 1.137097
Pattern_3 1.190318 1.186675 1.191787 1.169064 1.104608 1.235393
Pattern_3 1.178661 1.264821 1.228870 1.340013 1.121773 1.244787
Pattern_3 1.213975 1.223015 1.149194 1.070480 0.901577 0.957337
Pattern_3 0.807216 0.726677 0.602388 0.582016 0.559234 0.526498
Pattern_3 0.518388 0.514357 0.593690 0.693710 0.766826 0.872416
Pattern_3 0.858182 1.195995 1.073153 1.353174 1.363458 1.436410
Pattern_3 1.482809 1.668003 1.605458 1.701465 1.669736 1.577946
Pattern_3 1.591643 1.436892 1.273389 1.317165 1.128500 1.192450
Pattern_3 1.143108 1.157762 0.981937 1.109038 1.198330 1.169328
Pattern_3 1.237349 1.200058 1.332926 1.333761 1.352553 1.418613
Pattern_3 1.402531 1.412806 1.210349 1.055432 1.079115 0.916215
Pattern_3 0.768424 0.756595 0.668532 0.568832 0.550371 0.509342
Pattern_3 0.540975 0.552505 0.559203 0.633790 0.733174 0.882786
Pattern_3 0.938857 1.096889 1.179469 1.258711 1.325455 1.492325
Pattern_3 1.459465 1.449906 1.543603 1.441660 1.551125 1.403621
Pattern_3 1.346822 1.402725 1.229460 1.361641 1.204480 1.182605
Pattern_3 1.157680 1.090126 1.160530 1.125544 1.216776 1.245444
Pattern_3 1.411296 1.260041 1.381043 1.359333 1.523450 1.312606
Pattern_3 1.361222 1.344391 1.228036 1.108067 1.104620 0.987003
Pattern_3 0.875211 0.760678 0.636047 0.598959 0.540222 0.498482
Pattern_3 0.535351 0.568623 0.620111 0.740547 0.798925 0.860958
Pattern_3 1.046578 1.172069 1.182459 1.276480 1.434470 1.568006
Pattern_3 1.405097 1.489663 1.764015 1.571336 1.533641 1.455780
Pattern_3 1.458429 1.568750 1.286428 1.421835 1.381168 1.265573
Pattern_3 1.237045 1.272528 1.174516 1.326727 1.266539 1.275642
Pattern_3 1.263092 1.419258 1.419456 1.204111 1.232287 1.442016
Pattern_3 1.364148 1.327964 1.196218 1.210604 1.069535 1.046029
Pattern_3 0.814071 0.760026 0.720686 0.672356 0.588016 0.518416
Pattern_3 0.521742 0.602712 0.592345 0.752997 0.831888 0.945550
Pattern_3 1.063780 1.222239 1.285763 1.373441 1.508205 1.485425
Pattern_3 1.564380 1.513375 1.445076 1.461598 1.604107 1.480546
Pattern_3 1.435989 1.399353 1.265387 1.320549 1.287321 1.242889
Pattern_3 1.200978 1.139759 1.236297 1.246346 1.218388 1.410793
Pattern_3 1.325161 1.383852 1.477138 1.271772 1.495259 1.365241
Pattern_3 1.346291 1.397133 1.312636 1.231562 1.162274 0.928968
Pattern_3 0.863116 0.764048 0.663593 0.602684 0.564733 0.571962
Pattern_3 0.515781 0.542687 0.646883 0.692135 0.899935 1.010533
Pattern_3 1.229793 1.363084 1.370382 1.515592 1.664787 1.711034
Pattern_3 1.858966 1.689749 1.615331 1.938656 1.777887 1.685663
Pattern_3 1.607000 1.553472 1.518089 1.266780 1.429567 1.248276
Pattern_3 1.201050 1.185811 1.255442 1.247813 1.273924 1.419753
Pattern_3 1.280854 1.372462 1.401523 1.472292 1.323935 1.383464
Pattern_3 1.328125 1.351900 1.260921 1.129550 1.014944 0.948130
Pattern_3 0.933137 0.855601 0.710962 0.716024 0.664457 0.593402
Pattern_3 0.595475 0.581863 0.599970 0.661884 0.736200 0.743217
Pattern_3 0.771225 0.969440 1.021491 1.259681 1.075259 1.367760
Pattern_3 1.426814 1.405306 1.493308 1.443740 1.492143 1.524299
Pattern_3 1.443754 1.396596 1.421034 1.253912 1.446704 1.270790
Pattern_3 1.283870 1.235670 1.292893 1.275008 1.484942 1.294982
Pattern_3 1.383305 1.203506 1.269468 1.417170 1.354762 1.257198
Pattern_3 1.146681 1.106759 1.135190 1.034546 0.950319 0.909553
Pattern_3 0.820677

Pattern_4 0.847765 0.817253 0.751894 0.706480 0.666900 0.623112
Pattern_4 0.693018 0.648060 0.673209 0.594737 0.763885 0.747202
Pattern_4 0.761734 0.758691 0.857363 0.956609 1.007690 1.096769
Pattern_4 1.069164 1.204310 1.143918 1.241930 1.287321 1.382025
Pattern_4 1.420040 1.145305 1.395865 1.276579 1.302898 1.199621
Pattern_4 1.155049 1.239069 1.127578 1.143079 1.165392 1.150480
Pattern_4 1.136727 1.274864 1.238961 1.258236 1.163389 1.206033
Pattern_4 1.158543 1.048758 1.128190 0.864349 1.029507 0.839014
Pattern_4 0.807928 0.755262 0.705101 0.617451 0.609765 0.627613
Pattern_4 0.615368 0.657857 0.705397 0.704266 0.800065 0.903941
Pattern_4 0.936054 0.942412 1.274080 1.236139 1.412329 1.367293
Pattern_4 1.423817 1.673779 1.560114 1.508892 1.524634 1.516720
Pattern_4 1.396403 1.218452 1.364019 1.243979 1.204184 1.157891
Pattern_4 1.256101 1.163518 1.111334 1.117268 1.034742 1.121473
Pattern_4 1.250337 1.304995 1.379373 1.334377 1.315731 1.335361
Pattern_4 1.350037 1.283877 1.260353 1.089622 1.054625 0.927473
Pattern_4 0.850537 0.760220 0.731352 0.680064 0.692224 0.584137
Pattern_4 0.643597 0.666634 0.668503 0.742049 0.795028 0.894748
Pattern_4 0.978319 1.050531 1.145829 1.203778 1.383674 1.408550
Pattern_4 1.492872 1.478714 1.528850 1.416678 1.583010 1.386384
Pattern_4 1.530380 1.362419 1.315918 1.164650 1.216232 1.279326
Pattern_4 1.156993 1.154044 1.064985 1.212088 1.296015 1.093093
Pattern_4 1.161114 1.452217 1.315559 1.419629 1.362679 1.185438
Pattern_4 1.290988 1.228248 1.134458 1.093532 1.105506 1.015716
Pattern_4 0.875233 0.800913 0.727948 0.573633 0.641712 0.580746
Pattern_4 0.608563 0.655292 0.712078 0.785810 0.798153 0.910464
Pattern_4 1.018133 1.138944 1.267468 1.271590 1.360906 1.400226
Pattern_4 1.309742 1.420621 1.430773 1.484932 1.532066 1.609427
Pattern_4 1.354108 1.385089 1.359872 1.293468 1.305493 1.207499
Pattern_4 1.300436 1.316932 1.267634 1.283830 1.238153 1.185102
Pattern_4 1.255886 1.294156 1.267695 1.331116 1.396553 1.171262
Pattern_4 1.292461 1.290262 1.112402 1.083772 1.103625 0.928424
Pattern_4 0.977024 0.781309 0.744124 0.639083 0.651660 0.598601
Pattern_4 0.641362 0.605318 0.703878 0.785178 0.812114 0.890125
Pattern_4 1.003457 1.223528 1.247552 1.300183 1.321714 1.453804
Pattern_4 1.487234 1.524486 1.436311 1.398858 1.409536 1.422939
Pattern_4 1.275589 1.411619 1.264889 1.363551 1.191420 1.316637
Pattern_4 1.225923 1.210603 1.220859 1.298180 1.204246 1.329635
Pattern_4 1.312546 1.269313 1.335038 1.311145 1.235156 1.269854
Pattern_4 1.325846 1.231666 1.195656 1.164035 1.047283 1.003019
Pattern_4 0.932738 0.831242 0.821875 0.715875 0.666427 0.670117
Pattern_4 0.617460 0.702702 0.765381 0.782353 0.922042 1.128523
Pattern_4 1.016743 1.221017 1.321378 1.495860 1.527776 1.608011
Pattern_4 1.413269 1.592640 1.630243 1.690307 1.524347 1.631257
Pattern_4 1.528920 1.456141 1.481990 1.297573 1.333940 1.244304
Pattern_4 1.224787 1.246373 1.031267 1.285370 1.350345 1.262087
Pattern_4 1.399838 1.114069 1.217944 1.308028 1.303752 1.306267
Pattern_4 1.259010 1.245341 1.153877 1.101805 1.081612 0.995029
Pattern_4 0.898160 0.801876 0.810548 0.764129 0.645689 0.717024
Pattern_4 0.661575 0.687647 0.680892 0.657542 0.746336 0.860347
Pattern_4 0.943337 0.914343 1.014331 1.092071 1.145381 1.285588
Pattern_4 1.427182 1.368189 1.409849 1.349601 1.383647 1.482379
Pattern_4 1.498335 1.359722 1.415065 1.385608 1.318447 1.280803
Pattern_4 1.243363 1.361588 1.230133 1.219164 1.314574 1.350560
Pattern_4 1.230979 1.216877 1.324017 1.225073 1.275794 1.175343
Pattern_4 1.200111 1.064522 1.042073 0.997424 0.955040 0.883073
Pattern_4 0.872736 0.808275 0.717952 0.762914 0.740345 0.693495
Pattern_4 0.677288 0.629375 0.655871 0.689958 0.721044 0.711376
Pattern_4 0.767584 0.799445 0.853638 0.959665 1.011909 1.074363
Pattern_4 1.252888 1.112918 1.245670 1.312511 1.379310 1.307540
Pattern_4 1.321711 1.336406 1.300425 1.326517 1.378409 1.179270
Pattern_4 1.218321 1.232423 1.250766 1.180582 1.208629 1.218051
Pattern_4 1.231543 1.235728 1.205953 1.191155 1.292149 1.224753
Pattern_4 1.332209 1.160055 1.026540 1.026353 0.971917 0.891954
Pattern_4 0.873093 0.734765 0.673460 0.637630 0.645019 0.643710
Pattern_4 0.605395 0.604703 0.615887 0.743479 0.789720 0.871293
Pattern_4 0.954063 1.128080 1.184400 1.310886 1.457594 1.345481
Pattern_4 1.417448 1.493838 1.613239 1.475071 1.512420 1.490277
Pattern_4 1.381166 1.532504 1.313066 1.271593 1.261711 1.250867
Pattern_4 1.119307 1.150250 1.128159 1.221498 1.138392 1.201116
Pattern_4 1.127029 1.356315 1.364311 1.347965 1.403837 1.383241
Pattern_4 1.268994 1.331633 1.246233 1.191798 1.111191 0.942753
Pattern_4 0.939102 0.759449 0.728227 0.679871 0.578296 0.575777
Pattern_4 0.590408 0.667387 0.660241 0.725168 0.825832 0.861118
Pattern_4 1.046474 1.055402 1.238361 1.313724 1.355797 1.488892
Pattern_4 1.496407 1.519450 1.580870 1.518070 1.554181 1.345787
Pattern_4 1.509253 1.346620 1.415443 1.235853 1.164641 1.154079
Pattern_4 1.073800 1.186581 1.128754 1.164882 1.368616 1.229594
Pattern_4 1.354600 1.244014 1.382923 1.246037 1.349179 1.336267
Pattern_4 1.296523 1.174652 1.214465 1.109428 1.082156 0.925041
Pattern_4 0.759527 0.724931 0.754269 0.655428 0.644492 0.607146
Pattern_4 0.594850 0.665110 0.729131 0.750506 0.881415 0.927487
Pattern_4 1.050721 1.031570 1.289647 1.218699 1.346093 1.400645
Pattern_4 1.413718 1.540846 1.492367 1.512537 1.461869 1.370493
Pattern_4 1.535383 1.345302 1.342110 1.419734 1.431706 1.389311
Pattern_4 1.177257 1.349102 1.215030 1.185391 1.271751 1.318172
Pattern_4 1.234646 1.400307 1.304630 1.216580 1.398883 1.312856
Pattern_4 1.333218 1.279124 1.219980 1.197472 1.096315 1.018823
Pattern_4 0.940077 0.854566 0.743594 0.684829 0.646632 0.591932
Pattern_4 0.625399 0.621782 0.632632 0.756484 0.860655 0.966759
Pattern_4 1.102543 1.131457 1.188487 1.392033 1.328072 1.419694
Pattern_4 1.477169 1.445607 1.507872 1.507176 1.430543 1.471322
Pattern_4 1.389729 1.316056 1.300458 1.223083 1.314763 1.213057
Pattern_4 1.317320 1.349033 1.270577 1.226819 1.194883 1.357216
Pattern_4 1.306177 1.189795 1.294703 1.382038 1.403515 1.393783
Pattern_4 1.316101 1.353526 1.246968 1.135980 1.059561 0.951829
Pattern_4 0.873769 0.869241 0.759782 0.722560 0.617863 0.598843
Pattern_4 0.663069 0.711253 0.794656 0.782537 0.852660 1.138011
Pattern_4 1.154495 1.166874 1.513000 1.476280 1.547738 1.631406
Pattern_4 1.570707 1.720823 1.704586 1.674533 1.452293 1.437959
Pattern_4 1.634053 1.325483 1.377966 1.377215 1.362493 1.302370
Pattern_4 1.363516 1.310882 1.344317 1.335334 1.275989 1.329056
Pattern_4 1.377511 1.371852 1.283063 1.352215 1.281274 1.375427
Pattern_4 1.299995 1.212848 1.225965 1.101067 1.086043 1.024785