; Filename: ../LeakDB/CCWI-WDSA2018/Dataset_Generator/networks/Hanoi_CMH.inp
; WNTR: 0.3.1
; Created: 2022-05-23 09:56:52
[TITLE]

[JUNCTIONS]
;ID                      Elevation       Demand Pattern                 
 2                                 30          247.22 Pattern_2                  ;
 3                                 30          236.11 Pattern_3                  ;
 4                                 30           36.11 Pattern_4                  ;
 5                                 30          201.39 Pattern_5                  ;
 6                                 30          279.17 Pattern_6                  ;
 7                                 30             375 Pattern_7                  ;
 8                                 30          152.78 Pattern_8                  ;
 9                                 30          145.83 Pattern_9                  ;
 10                                30          145.83 Pattern_10                 ;
 11                                30          138.89 Pattern_11                 ;
 12                                30          155.56 Pattern_12                 ;
 13                                30          261.11 Pattern_13                 ;
 14                                30          170.83 Pattern_14                 ;
 15                                30           77.78 Pattern_15                 ;
 16                                30           86.11 Pattern_16                 ;
 17                                30          240.28 Pattern_17                 ;
 18                                30          373.61 Pattern_18                 ;
 19                                30           16.67 Pattern_19                 ;
 20                                30          354.17 Pattern_20                 ;
 21                                30          258.33 Pattern_21                 ;
 22                                30          134.72 Pattern_22                 ;
 23                                30          290.28 Pattern_23                 ;
 24                                30          227.78 Pattern_24                 ;
 25                                30           47.22 Pattern_25                 ;
 26                                30             250 Pattern_26                 ;
 27                                30          102.78 Pattern_27                 ;
 28                                30           80.56 Pattern_28                 ;
 29                                30             100 Pattern_29                 ;
 30                                30             100 Pattern_30                 ;
 31                                30           29.17 Pattern_31                 ;
 32                                30          223.61 Pattern_32                 ;

[RESERVOIRS]
;ID                                   Head                  Pattern
 1                                100                            ;

[TANKS]
;ID                              Elevation           Init Level            Min Level            Max Level             Diameter           Min Volume Volume Curve         Overflow            

[PIPES]
;ID                   Node1                Node2                              Length             Diameter            Roughness           Minor Loss               Status
 1                    1                    2                                100            1016             130               0                 Open   ;
 2                    2                    3                               1350            1016             130               0                 Open   ;
 3                    3                    4                                900            1016             130               0                 Open   ;
 4                    4                    5                               1150            1016             130               0                 Open   ;
 5                    5                    6                               1450            1016             130               0                 Open   ;
 6                    6                    7                                450            1016             130               0                 Open   ;
 7                    7                    8                                850            1016             130               0                 Open   ;
 8                    8                    9                                850            1016             130               0                 Open   ;
 9                    9                    10                               800            1016             130               0                 Open   ;
 10                   10                   11                               950             762             130               0                 Open   ;
 11                   11                   12                              1200             762             130               0                 Open   ;
 12                   12                   13                              3500           609.6             130               0                 Open   ;
 13                   10                   14                               800           406.4             130               0                 Open   ;
 14                   14                   15                               500           406.4             130               0                 Open   ;
 15                   15                   16                               550           304.8             130               0                 Open   ;
 16                   17                   16                              2730           406.4             130               0                 Open   ;
 17                   17                   18                              1750             508             130               0                 Open   ;
 18                   18                   19                               800           609.6             130               0                 Open   ;
 19                   19                   3                                400           609.6             130               0                 Open   ;
 20                   3                    20                              2200            1016             130               0                 Open   ;
 21                   20                   21                              1500             508             130               0                 Open   ;
 22                   21                   22                               500           304.8             130               0                 Open   ;
 23                   20                   23                              2650            1016             130               0                 Open   ;
 24                   23                   24                              1230             762             130               0                 Open   ;
 25                   24                   25                              1300             762             130               0                 Open   ;
 26                   26                   25                               850             508             130               0                 Open   ;
 27                   27                   26                               300           304.8             130               0                 Open   ;
 28                   16                   27                               750           304.8             130               0                 Open   ;
 29                   23                   28                              1500           406.4             130               0                 Open   ;
 30                   28                   29                              2000           406.4             130               0                 Open   ;
 31                   29                   30                              1600           304.8             130               0                 Open   ;
 32                   30                   31                               150           304.8             130               0                 Open   ;
 33                   32                   31                               860           406.4             130               0                 Open   ;
 34                   25                   32                               950             508             130               0                 Open   ;

[PUMPS]
;ID                   Node1                Node2                Properties          

[VALVES]
;ID                   Node1                Node2                            Diameter Type              Setting           Minor Loss

[TAGS]
;type      name       tag       

[DEMANDS]
;ID        Demand     Pattern   

[STATUS]
;ID        Setting   
[PATTERNS]
;ID        Multipliers

Pattern_2 0.799138 0.747479 0.676551 0.642407 0.618076 0.581387
Pattern_2 0.549383 0.596168 0.553473 0.555559 0.564212 0.621161
Pattern_2 0.723862 0.757495 0.781444 0.840127 0.971510 1.151313
Pattern_2 1.061605 1.157169 1.091434 1.359655 1.314239 1.353968
Pattern_2 1.327163 1.357463 1.297121 1.288500 1.190231 1.102214
Pattern_2 1.188569 1.237103 1.248168 1.220764 1.138365 1.086502
Pattern_2 1.157806 1.162016 1.134923 1.229694 1.120406 1.191034
Pattern_2 1.182906 1.118735 1.043796 1.049351 0.929348 0.835444
Pattern_2 0.713153 0.706914 0.619501 0.562677 0.527116 0.532402
Pattern_2 0.523813 0.488939 0.572496 0.663727 0.816429 0.942765
Pattern_2 0.880089 1.055148 1.286337 1.240561 1.392612 1.485015
Pattern_2 1.457163 1.475694 1.638362 1.599221 1.613679 1.660053
Pattern_2 1.632403 1.597121 1.320139 1.231632 1.247478 1.145283
Pattern_2 1.134960 1.086479 1.116194 1.174461 1.107139 1.180575
Pattern_2 1.231446 1.315892 1.220303 1.324006 1.345182 1.254584
Pattern_2 1.129050 1.222407 1.142153 1.073800 1.020083 0.891033
Pattern_2 0.910654 0.702938 0.647452 0.625654 0.573857 0.573594
Pattern_2 0.524648 0.521560 0.551938 0.691826 0.696244 0.916256
Pattern_2 0.966749 0.997651 1.081587 1.253624 1.324105 1.508591
Pattern_2 1.339660 1.491603 1.702591 1.503483 1.381940 1.513124
Pattern_2 1.406320 1.360761 1.242807 1.311633 1.330061 1.209540
Pattern_2 1.126575 1.109691 1.217779 1.126752 1.270628 1.252476
Pattern_2 1.291058 1.346550 1.314026 1.332141 1.410560 1.499968
Pattern_2 1.287105 1.377938 1.307603 1.170512 1.077108 0.984426
Pattern_2 0.801571 0.703697 0.686863 0.623294 0.572130 0.504358
Pattern_2 0.560844 0.600703 0.606594 0.724459 0.849640 0.913736
Pattern_2 0.962533 1.093038 1.253903 1.292479 1.433526 1.404832
Pattern_2 1.556658 1.599379 1.474344 1.506907 1.420520 1.509833
Pattern_2 1.489669 1.471842 1.353915 1.350743 1.225698 1.173654
Pattern_2 1.273342 1.212632 1.197639 1.267484 1.174772 1.305640
Pattern_2 1.319679 1.366655 1.335444 1.330328 1.405702 1.274339
Pattern_2 1.267997 1.254978 1.248562 1.199156 1.080968 1.028824
Pattern_2 0.816456 0.774535 0.637404 0.597569 0.546385 0.567297
Pattern_2 0.529357 0.569267 0.618816 0.724235 0.896281 0.956343
Pattern_2 1.017453 1.102255 1.294424 1.361485 1.323117 1.327640
Pattern_2 1.619704 1.665256 1.613560 1.599330 1.528169 1.542648
Pattern_2 1.322655 1.199293 1.301495 1.458212 1.250340 1.210773
Pattern_2 1.240329 1.203114 1.242529 1.170154 1.228547 1.264056
Pattern_2 1.264126 1.277185 1.298698 1.321908 1.415310 1.346575
Pattern_2 1.198659 1.298215 1.253371 1.114070 1.017865 0.968029
Pattern_2 0.888526 0.677093 0.712762 0.640778 0.533334 0.596346
Pattern_2 0.568103 0.646470 0.673063 0.794873 0.825300 0.955891
Pattern_2 1.053582 1.101215 1.460087 1.442026 1.625848 1.650118
Pattern_2 1.766785 1.831565 1.631862 1.763820 1.755032 1.589106
Pattern_2 1.570258 1.381534 1.325669 1.491205 1.317086 1.283958
Pattern_2 1.229618 1.237657 1.399326 1.305416 1.140845 1.299491
Pattern_2 1.209053 1.302972 1.184293 1.244275 1.432760 1.195857
Pattern_2 1.342084 1.143075 1.133773 1.194492 1.034387 0.956633
Pattern_2 0.914573 0.867365 0.822387 0.665865 0.642270 0.601934
Pattern_2 0.635496 0.578828 0.644491 0.620477 0.701788 0.830254
Pattern_2 0.810236 0.927502 0.978000 1.237742 1.100728 1.301492
Pattern_2 1.384687 1.584687 1.466646 1.384002 1.394850 1.453001
Pattern_2 1.377666 1.386804 1.442570 1.335662 1.323499 1.295750
Pattern_2 1.242203 1.310803 1.184219 1.371348 1.208858 1.215548
Pattern_2 1.316912 1.159840 1.245537 1.247321 1.143462 1.152127
Pattern_2 1.061132 1.173929 0.959405 1.023012 0.930108 0.872198
Pattern_2 0.765187 0.766185 0.649258 0.660025 0.639506 0.621221
Pattern_2 0.571428 0.586209 0.573630 0.578562 0.659250 0.642178
Pattern_2 0.749504 0.771406 0.814948 0.979936 1.008372 1.100708
Pattern_2 1.188598 1.223973 1.298096 1.276891 1.391358 1.369615
Pattern_2 1.271877 1.331132 1.364006 1.387640 1.231006 1.273930
Pattern_2 1.211251 1.148426 1.195744 1.177701 1.233402 1.195291
Pattern_2 1.237071 1.173705 1.208564 1.309697 1.310474 1.201677
Pattern_2 1.168276 1.118478 1.147953 1.045890 1.042303 0.919521
Pattern_2 0.789319 0.697835 0.674082 0.616104 0.551464 0.551353
Pattern_2 0.535381 0.572547 0.575998 0.630771 0.763316 0.769465
Pattern_2 0.954537 1.146223 1.160502 1.237720 1.358722 1.307411
Pattern_2 1.572277 1.531205 1.617259 1.637528 1.608193 1.624376
Pattern_2 1.594991 1.431087 1.367094 1.339237 1.168683 1.141573
Pattern_2 1.157196 1.086599 1.223875 1.025981 1.216224 1.222985
Pattern_2 1.263338 1.225161 1.241204 1.308745 1.409929 1.461926
Pattern_2 1.503855 1.224223 1.226169 1.207062 1.076378 0.960761
Pattern_2 0.804403 0.864796 0.660754 0.597037 0.539803 0.528410
Pattern_2 0.598005 0.528619 0.608287 0.731692 0.764651 0.899244
Pattern_2 0.871258 1.088629 1.151429 1.363345 1.403644 1.422969
Pattern_2 1.533441 1.508616 1.496687 1.635475 1.516275 1.547054
Pattern_2 1.536068 1.410890 1.359527 1.299173 1.263462 1.265367
Pattern_2 1.140375 1.120841 1.346750 1.080632 1.296826 1.173070
Pattern_2 1.365462 1.340238 1.340479 1.291264 1.416381 1.429239
Pattern_2 1.353939 1.335500 1.132302 1.128749 1.132333 0.919228
Pattern_2 0.775392 0.743845 0.751603 0.576957 0.550626 0.548607
Pattern_2 0.539532 0.647368 0.682533 0.777217 0.745324 0.903251
Pattern_2 1.011349 1.106502 1.162558 1.327761 1.301401 1.487629
Pattern_2 1.409530 1.539310 1.350273 1.712391 1.375111 1.674108
Pattern_2 1.480994 1.440649 1.376212 1.416280 1.325574 1.350354
Pattern_2 1.294658 1.370581 1.187290 1.212082 1.211048 1.215438
Pattern_2 1.300083 1.337385 1.249612 1.375593 1.384930 1.375023
Pattern_2 1.280333 1.356312 1.210140 1.155830 1.057009 0.923122
Pattern_2 0.791367 0.766074 0.742489 0.614292 0.549786 0.537045
Pattern_2 0.555145 0.574473 0.644794 0.728970 0.842259 0.885969
Pattern_2 0.997014 1.106044 1.127275 1.360621 1.369646 1.456138
Pattern_2 1.364740 1.401933 1.497020 1.608192 1.528922 1.537055
Pattern_2 1.400821 1.380459 1.257081 1.259601 1.367597 1.209602
Pattern_2 1.326663 1.165514 1.258471 1.295774 1.222936 1.301561
Pattern_2 1.234279 1.362974 1.405675 1.282020 1.323677 1.355187
Pattern_2 1.340648 1.158644 1.266240 1.082118 1.108774 0.991734
Pattern_2 0.841433 0.876290 0.649985 0.633523 0.624623 0.578297
Pattern_2 0.595300 0.633556 0.715403 0.756178 0.958097 0.995546
Pattern_2 1.189981 1.259637 1.410397 1.491023 1.659805 1.549862
Pattern_2 1.809073 1.709118 1.627815 1.711455 1.666134 1.629983
Pattern_2 1.536688 1.490161 1.389291 1.402352 1.480711 1.340635
Pattern_2 1.367215 1.371414 1.259879 1.234850 1.302955 1.275394
Pattern_2 1.319615 1.347950 1.367483 1.293345 1.521521 1.217714
Pattern_2 1.263244 1.250287 1.100564 1.065923 1.038311 1.016177
Pattern_2 0.934490 0.802212 0.752767 0.696593 0.639905 0.676089
Pattern_2 0.596912 0.585133 0.620688 0.619099 0.777353 0.789309
Pattern_2 0.778325 0.949180 1.020772 1.115070 1.169465 1.239371
Pattern_2 1.230434 1.336895 1.491166 1.576033 1.422088 1.285871
Pattern_2 1.417349 1.407465 1.335185 1.449036 1.316672 1.278654
Pattern_2 1.300981 1.237229 1.279936 1.342728 1.356423 1.435829
Pattern_2 1.275688 1.308866 1.240963 1.233313 1.302716 1.113452
Pattern_2 1.045804 1.060633 0.978574 0.960992 0.929471 0.875328
Pattern_2 0.847252

Pattern_3 0.773292 0.690596 0.722630 0.631802 0.594141 0.531232
Pattern_3 0.606929 0.509199 0.541179 0.555851 0.620026 0.621937
Pattern_3 0.660994 0.759090 0.865824 0.916510 1.071369 0.993436
Pattern_3 1.133541 1.146115 1.214213 1.271986 1.474108 1.406735
Pattern_3 1.475788 1.337474 1.293550 1.375649 1.279579 1.205787
Pattern_3 1.174847 1.262817 1.168519 1.149086 1.223217 1.268282
Pattern_3 1.250021 1.099890 1.217525 1.129158 1.216933 1.188382
Pattern_3 1.152208 1.078623 1.049200 0.980130 0.901196 0.785256
Pattern_3 0.767915 0.666116 0.610016 0.544260 0.543143 0.490426
Pattern_3 0.489059 0.545202 0.536001 0.631338 0.756204 0.757280
Pattern_3 0.956737 1.073794 1.206735 1.358070 1.406599 1.477593
Pattern_3 1.671960 1.565205 1.582698 1.600262 1.545499 1.640024
Pattern_3 1.520923 1.443668 1.433868 1.262857 1.260666 1.074669
Pattern_3 1.184335 1.223833 1.166575 1.104396 1.153492 1.155181
Pattern_3 1.193230 1.259672 1.360524 1.257535 1.350227 1.300634
Pattern_3 1.318128 1.387305 1.125727 1.141349 1.009511 0.940358
Pattern_3 0.783056 0.738190 0.651768 0.481758 0.531639 0.520792
Pattern_3 0.495668 0.456567 0.569269 0.643641 0.698385 0.824800
Pattern_3 0.896961 1.074907 1.266496 1.275385 1.408144 1.354469
Pattern_3 1.448197 1.483828 1.584060 1.450492 1.517920 1.614129
Pattern_3 1.429649 1.538442 1.406248 1.269101 1.252914 1.138873
Pattern_3 1.205572 1.195926 1.198094 1.211613 1.217151 1.267891
Pattern_3 1.317042 1.416087 1.447510 1.408852 1.439908 1.299451
Pattern_3 1.368981 1.186423 1.213216 1.190469 1.038485 0.979412
Pattern_3 0.796852 0.735458 0.663007 0.561265 0.531498 0.521678
Pattern_3 0.513706 0.574781 0.594897 0.732571 0.719405 0.888189
Pattern_3 1.050585 1.075287 1.145757 1.274483 1.344497 1.421594
Pattern_3 1.563154 1.507695 1.704435 1.496307 1.441204 1.560343
Pattern_3 1.490009 1.374933 1.333929 1.468977 1.399235 1.345257
Pattern_3 1.219611 1.199765 1.249393 1.251648 1.186809 1.284774
Pattern_3 1.242349 1.285906 1.429316 1.365013 1.277849 1.443155
Pattern_3 1.213085 1.279026 1.211838 1.024984 1.102255 0.952075
Pattern_3 0.859899 0.684406 0.651776 0.559603 0.462636 0.422611
Pattern_3 0.559865 0.506974 0.590538 0.669581 0.746072 0.921879
Pattern_3 1.027814 1.091709 1.212593 1.331653 1.282491 1.527395
Pattern_3 1.371115 1.606047 1.525393 1.387150 1.569225 1.434941
Pattern_3 1.358189 1.386584 1.267215 1.380136 1.344788 1.160929
Pattern_3 1.131713 1.228241 1.361808 1.234322 1.176744 1.215779
Pattern_3 1.357383 1.342583 1.222605 1.442201 1.396737 1.425594
Pattern_3 1.359825 1.239527 1.128752 1.037390 1.052447 0.974708
Pattern_3 0.804856 0.698985 0.742746 0.593779 0.566824 0.492916
Pattern_3 0.533533 0.614526 0.671297 0.769733 0.852886 1.083130
Pattern_3 1.034659 1.295471 1.391417 1.564198 1.620128 1.626800
Pattern_3 1.592858 1.645296 1.788155 1.770913 1.813783 1.505413
Pattern_3 1.651300 1.517909 1.499271 1.442735 1.354168 1.401053
Pattern_3 1.349246 1.380739 1.321138 1.270973 1.358663 1.318228
Pattern_3 1.293825 1.378263 1.383444 1.304162 1.375583 1.189405
Pattern_3 1.319392 1.146055 1.141422 1.091952 1.027264 0.964983
Pattern_3 0.924801 0.779301 0.744273 0.687805 0.581754 0.632663
Pattern_3 0.561130 0.528424 0.604450 0.569574 0.668067 0.770380
Pattern_3 0.876566 0.960876 1.080900 1.090918 1.265430 1.279558
Pattern_3 1.473116 1.495060 1.513457 1.499849 1.578302 1.337259
Pattern_3 1.382016 1.342897 1.346363 1.272451 1.360526 1.385056
Pattern_3 1.338546 1.198775 1.384289 1.330960 1.338956 1.162660
Pattern_3 1.353694 1.347605 1.220445 1.294051 1.163276 1.261434
Pattern_3 1.118657 1.116140 1.098317 0.989322 0.971006 0.839560
Pattern_3 0.798088 0.730639 0.647790 0.686299 0.606565 0.569551
Pattern_3 0.511298 0.544635 0.518025 0.517943 0.575867 0.611318
Pattern_3 0.691380 0.791073 0.785932 0.900649 1.019074 1.020950
Pattern_3 1.129500 1.190332 1.231637 1.241863 1.367909 1.314374
Pattern_3 1.427369 1.282444 1.446603 1.341755 1.294023 1.338116
Pattern_3 1.177778 1.170005 1.181629 1.263954 1.270565 1.190664
Pattern_3 1.259232 1.374760 1.328207 1.210729 1.220494 1.191811
Pattern_3 1.207861 1.233519 1.114170 1.069711 0.992519 0.803927
Pattern_3 0.757255 0.701183 0.620074 0.529277 0.491824 0.479515
Pattern_3 0.473585 0.578304 0.588139 0.613059 0.722852 0.851754
Pattern_3 1.005286 1.033569 1.146517 1.286308 1.509737 1.586409
Pattern_3 1.479756 1.595108 1.645434 1.696173 1.559920 1.549635
Pattern_3 1.386863 1.512638 1.463883 1.357849 1.207704 1.186974
Pattern_3 1.130408 1.152689 1.106995 1.204310 1.291012 1.246439
Pattern_3 1.337835 1.194762 1.271913 1.317570 1.382809 1.314121
Pattern_3 1.377122 1.163467 1.273340 1.050099 1.012771 0.922788
Pattern_3 0.748270 0.687299 0.653303 0.582104 0.551859 0.484913
Pattern_3 0.530409 0.540733 0.546450 0.626678 0.732787 0.766761
Pattern_3 0.930052 1.031185 1.184378 1.286919 1.346060 1.390584
Pattern_3 1.440811 1.525324 1.439455 1.591662 1.791054 1.617183
Pattern_3 1.447282 1.409325 1.442171 1.408629 1.244973 1.141040
Pattern_3 1.240642 1.209925 1.151383 1.216993 1.301453 1.309824
Pattern_3 1.260629 1.358716 1.418146 1.397825 1.324731 1.370096
Pattern_3 1.289877 1.298055 1.187627 1.238359 1.120789 0.874173
Pattern_3 0.851903 0.781314 0.635233 0.572666 0.545000 0.495704
Pattern_3 0.517479 0.519818 0.614378 0.704159 0.778962 0.908191
Pattern_3 0.988186 1.140066 1.223235 1.179587 1.289610 1.392219
Pattern_3 1.488298 1.586869 1.542266 1.439843 1.533005 1.556026
Pattern_3 1.643266 1.281662 1.371401 1.373174 1.473707 1.197288
Pattern_3 1.165648 1.333538 1.364836 1.323675 1.217612 1.353766
Pattern_3 1.354324 1.302160 1.327535 1.333337 1.401036 1.270285
Pattern_3 1.336699 1.362735 1.169962 1.202186 1.012373 0.893084
Pattern_3 0.806895 0.776617 0.610884 0.574971 0.480372 0.553012
Pattern_3 0.519910 0.500138 0.582051 0.685839 0.786980 0.786503
Pattern_3 1.088618 1.226462 1.219922 1.355777 1.363457 1.457209
Pattern_3 1.573645 1.642603 1.544907 1.517570 1.560435 1.349267
Pattern_3 1.432736 1.382693 1.202137 1.315018 1.378836 1.251045
Pattern_3 1.375556 1.216115 1.171203 1.219085 1.210646 1.371781
Pattern_3 1.255511 1.294631 1.297215 1.416051 1.414668 1.400185
Pattern_3 1.351483 1.301036 1.180752 1.085497 1.082400 0.909467
Pattern_3 0.901737 0.738127 0.703298 0.568094 0.543757 0.516916
Pattern_3 0.557762 0.608903 0.668573 0.746777 0.847907 0.911352
Pattern_3 1.207176 1.332959 1.216497 1.670481 1.559770 1.709968
Pattern_3 1.734861 1.707277 1.695122 1.627580 1.811714 1.562311
Pattern_3 1.653920 1.560795 1.506924 1.545029 1.325869 1.411312
Pattern_3 1.398106 1.342864 1.311589 1.408553 1.374416 1.332656
Pattern_3 1.400874 1.380796 1.344672 1.349175 1.369584 1.145547
Pattern_3 1.267889 1.286628 1.114487 1.120080 1.001920 0.894088
Pattern_3 0.889892 0.857275 0.759115 0.645470 0.578919 0.593811
Pattern_3 0.556542 0.592564 0.585012 0.625036 0.708809 0.758442
Pattern_3 0.843847 0.842693 0.983559 1.186393 1.272289 1.263110
Pattern_3 1.432918 1.435482 1.398886 1.510603 1.495020 1.357820
Pattern_3 1.412127 1.372813 1.408442 1.422034 1.292727 1.365515
Pattern_3 1.363613 1.474937 1.247741 1.354039 1.272791 1.286103
Pattern_3 1.341914 1.322815 1.415708 1.369387 1.274961 1.210872
Pattern_3 1.116190 1.125064 1.055773 1.057554 0.803537 0.926412
Pattern_3 0.772685

Pattern_4 0.868495 0.786225 0.723553 0.706356 0.753240 0.613745
Pattern_4 0.596249 0.612405 0.600219 0.589074 0.674618 0.680858
Pattern_4 0.670321 0.851221 0.889876 0.952608 1.038700 1.026846
Pattern_4 1.197068 1.210423 1.249249 1.144249 1.354540 1.250394
Pattern_4 1.411705 1.311179 1.286424 1.213635 1.178367 1.223965
Pattern_4 1.214458 1.133084 1.006850 1.116353 1.122950 1.106571
Pattern_4 1.197698 1.206304 1.253828 1.154279 1.239120 1.142040
Pattern_4 1.225587 1.139865 1.127549 0.992957 0.991464 0.881827
Pattern_4 0.803473 0.765859 0.676216 0.572631 0.581496 0.566413
Pattern_4 0.528307 0.613200 0.648979 0.700831 0.781780 0.746272
Pattern_4 1.053006 1.105006 1.207611 1.214125 1.412144 1.508888
Pattern_4 1.469443 1.523815 1.615532 1.655603 1.621466 1.324397
Pattern_4 1.371006 1.465166 1.476788 1.221148 1.223555 1.150348
Pattern_4 1.093522 1.108659 1.152423 1.114277 1.089741 1.261656
Pattern_4 1.158836 1.129386 1.265546 1.311034 1.340086 1.322050
Pattern_4 1.403561 1.137124 1.050514 1.184885 0.982911 0.924280
Pattern_4 0.959711 0.781502 0.723477 0.624436 0.611140 0.580498
Pattern_4 0.549630 0.658830 0.665419 0.719713 0.808757 0.945968
Pattern_4 0.946783 1.112369 1.130225 1.286360 1.414630 1.375264
Pattern_4 1.397895 1.470146 1.607319 1.470074 1.477595 1.505765
Pattern_4 1.325593 1.369341 1.245604 1.167786 1.200938 1.157763
Pattern_4 1.133885 1.145388 1.207928 1.135201 1.237395 1.248060
Pattern_4 1.299707 1.406537 1.371743 1.252916 1.433785 1.395988
Pattern_4 1.431133 1.242180 1.235359 1.067765 1.020301 0.924793
Pattern_4 0.840410 0.732162 0.731327 0.650756 0.563517 0.573083
Pattern_4 0.592663 0.627685 0.678288 0.745660 0.797592 0.961780
Pattern_4 0.993252 1.214869 1.221500 1.242627 1.387137 1.299948
Pattern_4 1.424648 1.505694 1.470440 1.521636 1.377842 1.451164
Pattern_4 1.370107 1.380163 1.392327 1.231237 1.257864 1.235689
Pattern_4 1.272861 1.277407 1.156558 1.116013 1.295776 1.285813
Pattern_4 1.190008 1.162628 1.337657 1.308945 1.268162 1.265961
Pattern_4 1.239642 1.372291 1.191445 1.153771 1.114267 0.904433
Pattern_4 0.889411 0.787194 0.781547 0.601609 0.613879 0.584253
Pattern_4 0.549205 0.598645 0.623229 0.745401 0.821205 0.886935
Pattern_4 1.045728 1.121701 1.219879 1.330152 1.422409 1.571036
Pattern_4 1.490752 1.489166 1.463017 1.618745 1.407444 1.406277
Pattern_4 1.350376 1.340916 1.218861 1.271481 1.251101 1.285906
Pattern_4 1.297832 1.136541 1.311209 1.310280 1.261984 1.186202
Pattern_4 1.131811 1.204409 1.276088 1.356542 1.280807 1.308806
Pattern_4 1.245842 1.150197 1.176743 1.088629 1.016185 1.000680
Pattern_4 0.874613 0.792912 0.705897 0.634616 0.611793 0.583361
Pattern_4 0.653881 0.622294 0.715962 0.808938 0.855266 0.947092
Pattern_4 1.144372 1.239078 1.418499 1.480780 1.569702 1.504619
Pattern_4 1.671756 1.712463 1.744367 1.656160 1.714546 1.583065
Pattern_4 1.529266 1.545427 1.506087 1.293799 1.316261 1.202477
Pattern_4 1.250164 1.342979 1.266706 1.247314 1.314976 1.250399
Pattern_4 1.325026 1.303312 1.366172 1.272315 1.331645 1.273249
Pattern_4 1.243782 1.145560 1.083488 1.174126 1.022682 0.968774
Pattern_4 0.875159 0.830972 0.858791 0.805314 0.711150 0.722233
Pattern_4 0.592989 0.586440 0.651591 0.633328 0.720176 0.819362
Pattern_4 0.894797 0.925180 1.001854 1.154170 1.225012 1.217122
Pattern_4 1.297000 1.383781 1.450592 1.352636 1.469433 1.489640
Pattern_4 1.476431 1.335801 1.338175 1.324518 1.260007 1.254946
Pattern_4 1.240604 1.260231 1.328562 1.292003 1.327706 1.230116
Pattern_4 1.310181 1.274804 1.315985 1.213561 1.199466 1.123076
Pattern_4 1.172794 1.120488 0.972175 0.849465 0.978934 0.852704
Pattern_4 0.861436 0.890078 0.789190 0.744923 0.725788 0.746795
Pattern_4 0.632357 0.638351 0.623992 0.673897 0.641953 0.679872
Pattern_4 0.744767 0.855387 0.818500 0.991848 1.104234 1.020593
Pattern_4 1.147669 1.279466 1.386179 1.293821 1.334027 1.303452
Pattern_4 1.432308 1.215246 1.294152 1.275235 1.400844 1.107884
Pattern_4 1.290543 1.104492 1.241070 1.121126 1.186814 1.223325
Pattern_4 1.172535 1.191797 1.333080 1.195183 1.152154 1.264035
Pattern_4 1.153661 1.137756 1.046346 1.039129 0.946351 0.919371
Pattern_4 0.758608 0.722264 0.636743 0.617801 0.563371 0.504056
Pattern_4 0.599483 0.586970 0.619727 0.742779 0.824152 0.817192
Pattern_4 0.921395 1.059697 1.218298 1.353405 1.516754 1.582802
Pattern_4 1.616447 1.763649 1.721429 1.603928 1.590353 1.536781
Pattern_4 1.519159 1.356450 1.242491 1.404916 1.222860 1.094205
Pattern_4 1.096848 1.085805 1.072265 1.086112 1.209857 1.123788
Pattern_4 1.230030 1.238968 1.444318 1.356969 1.469291 1.249554
Pattern_4 1.307682 1.365821 1.243815 1.116750 1.024230 0.957795
Pattern_4 0.831568 0.773492 0.681994 0.639516 0.667892 0.595756
Pattern_4 0.590187 0.587427 0.638608 0.669053 0.797453 0.932104
Pattern_4 0.990202 1.098931 1.267515 1.382330 1.295260 1.471466
Pattern_4 1.434828 1.468629 1.579102 1.476510 1.419992 1.562465
Pattern_4 1.270898 1.398298 1.383209 1.297130 1.269117 1.265420
Pattern_4 1.191632 1.195215 1.247751 1.207268 1.210159 1.229773
Pattern_4 1.404258 1.350844 1.371627 1.456355 1.382925 1.429971
Pattern_4 1.301768 1.377639 1.155305 1.197086 1.054369 0.804385
Pattern_4 0.833605 0.749185 0.743851 0.635160 0.622816 0.598769
Pattern_4 0.653403 0.677937 0.665418 0.754578 0.868543 1.034141
Pattern_4 0.953949 1.177609 1.334187 1.462244 1.387665 1.396450
Pattern_4 1.686352 1.526470 1.517637 1.702782 1.395462 1.446526
Pattern_4 1.490573 1.331709 1.320742 1.293290 1.341302 1.271244
Pattern_4 1.272611 1.237949 1.282674 1.244180 1.238386 1.311427
Pattern_4 1.248681 1.405813 1.410512 1.372263 1.329309 1.418194
Pattern_4 1.361220 1.193133 1.273064 1.167498 1.120982 1.001567
Pattern_4 0.852937 0.808475 0.696289 0.639467 0.574830 0.579159
Pattern_4 0.556428 0.572961 0.644192 0.659011 0.873609 0.965894
Pattern_4 1.117598 1.195981 1.263420 1.341404 1.361428 1.452180
Pattern_4 1.518388 1.510667 1.473142 1.555596 1.410312 1.451363
Pattern_4 1.455283 1.305313 1.311888 1.412491 1.155101 1.279308
Pattern_4 1.388958 1.339117 1.302042 1.341719 1.268796 1.315667
Pattern_4 1.305112 1.425501 1.298925 1.408319 1.406743 1.363077
Pattern_4 1.328608 1.351380 1.223834 1.136751 1.096605 0.938329
Pattern_4 0.817545 0.830672 0.743053 0.660056 0.602786 0.622928
Pattern_4 0.632915 0.653199 0.676286 0.776864 0.919558 1.059637
Pattern_4 1.197298 1.360322 1.396985 1.493573 1.550087 1.783455
Pattern_4 1.811013 1.612661 1.842101 1.705547 1.714887 1.763540
Pattern_4 1.566902 1.588116 1.365750 1.317884 1.318677 1.397255
Pattern_4 1.291369 1.289526 1.364484 1.368682 1.360817 1.317731
Pattern_4 1.231829 1.414195 1.216316 1.292113 1.227600 1.249435
Pattern_4 1.131799 1.322442 1.205051 1.096122 0.929551 1.043499