; Filename: ../LeakDB/CCWI-WDSA2018/Dataset_Generator/networks/Hanoi_CMH.inp
; WNTR: 0.3.1
; Created: 2022-06-23 17:18:26
[TITLE]

[JUNCTIONS]
;ID                      Elevation       Demand Pattern                 
 2                                 30          247.22 Pattern_2                  ;
 3                                 30          236.11 Pattern_3                  ;
 4                                 30           36.11 Pattern_4                  ;
 5                                 30          201.39 Pattern_5                  ;
 6                                 30          279.17 Pattern_6                  ;
 7                                 30             375 Pattern_7                  ;
 8                                 30          152.78 Pattern_8                  ;
 9                                 30          145.83 Pattern_9                  ;
 10                                30          145.83 Pattern_10                 ;
 11                                30          138.89 Pattern_11                 ;
 12                                30          155.56 Pattern_12                 ;
 13                                30          261.11 Pattern_13                 ;
 14                                30          170.83 Pattern_14                 ;
 15                                30           77.78 Pattern_15                 ;
 16                                30           86.11 Pattern_16                 ;
 17                                30          240.28 Pattern_17                 ;
 18                                30          373.61 Pattern_18                 ;
 19                                30           16.67 Pattern_19                 ;
 20                                30          354.17 Pattern_20                 ;
 21                                30          258.33 Pattern_21                 ;
 22                                30          134.72 Pattern_22                 ;
 23                                30          290.28 Pattern_23                 ;
 24                                30          227.78 Pattern_24                 ;
 25                                30           47.22 Pattern_25                 ;
 26                                30             250 Pattern_26                 ;
 27                                30          102.78 Pattern_27                 ;
 28                                30           80.56 Pattern_28                 ;
 29                                30             100 Pattern_29                 ;
 30                                30             100 Pattern_30                 ;
 31                                30           29.17 Pattern_31                 ;
 32                                30          223.61 Pattern_32                 ;

[RESERVOIRS]
;ID                                   Head                  Pattern
 1                                100                            ;

[TANKS]
;ID                              Elevation           Init Level            Min Level            Max Level             Diameter           Min Volume Volume Curve         Overflow            

[PIPES]
;ID                   Node1                Node2                              Length             Diameter            Roughness           Minor Loss               Status
 1                    1                    2                                100            1016             130               0                 Open   ;
 2                    2                    3                               1350            1016             130               0                 Open   ;
 3                    3                    4                                900            1016             130               0                 Open   ;
 4                    4                    5                               1150            1016             130               0                 Open   ;
 5                    5                    6                               1450            1016             130               0                 Open   ;
 6                    6                    7                                450            1016             130               0                 Open   ;
 7                    7                    8                                850            1016             130               0                 Open   ;
 8                    8                    9                                850            1016             130               0                 Open   ;
 9                    9                    10                               800            1016             130               0                 Open   ;
 10                   10                   11                               950             762             130               0                 Open   ;
 11                   11                   12                              1200             762             130               0                 Open   ;
 12                   12                   13                              3500           609.6             130               0                 Open   ;
 13                   10                   14                               800           406.4             130               0                 Open   ;
 14                   14                   15                               500           406.4             130               0                 Open   ;
 15                   15                   16                               550           304.8             130               0                 Open   ;
 16                   17                   16                              2730           406.4             130               0                 Open   ;
 17                   17                   18                              1750             508             130               0                 Open   ;
 18                   18                   19                               800           609.6             130               0                 Open   ;
 19                   19                   3                                400           609.6             130               0                 Open   ;
 20                   3                    20                              2200            1016             130               0                 Open   ;
 21                   20                   21                              1500             508             130               0                 Open   ;
 22                   21                   22                               500           304.8             130               0                 Open   ;
 23                   20                   23                              2650            1016             130               0                 Open   ;
 24                   23                   24                              1230             762             130               0                 Open   ;
 25                   24                   25                              1300             762             130               0                 Open   ;
 26                   26                   25                               850             508             130               0                 Open   ;
 27                   27                   26                               300           304.8             130               0                 Open   ;
 28                   16                   27                               750           304.8             130               0                 Open   ;
 29                   23                   28                              1500           406.4             130               0                 Open   ;
 30                   28                   29                              2000           406.4             130               0                 Open   ;
 31                   29                   30                              1600           304.8             130               0                 Open   ;
 32                   30                   31                               150           304.8             130               0                 Open   ;
 33                   32                   31                               860           406.4             130               0                 Open   ;
 34                   25                   32                               950             508             130               0                 Open   ;

[PUMPS]
;ID                   Node1                Node2                Properties          

[VALVES]
;ID                   Node1                Node2                            Diameter Type              Setting           Minor Loss

[TAGS]
;type      name       tag       

[DEMANDS]
;ID        Demand     Pattern   

[STATUS]
;ID        Setting   
[PATTERNS]
;ID        Multipliers

Pattern_2 0.779126 0.735453 0.597817 0.645210 0.618661 0.539929
Pattern_2 0.519627 0.529475 0.486951 0.549379 0.550518 0.551060
Pattern_2 0.634225 0.725108 0.709880 0.882843 0.826271 0.954367
Pattern_2 1.159282 1.200305 1.220325 1.256803 1.290864 1.306911
Pattern_2 1.431731 1.350287 1.381565 1.352026 1.155650 1.245944
Pattern_2 1.258074 1.253773 1.284845 1.272689 1.220991 1.234761
Pattern_2 1.152218 1.169477 1.275264 1.230321 1.067583 1.363861
Pattern_2 1.200611 1.177962 1.087490 1.009413 0.920901 0.876256
Pattern_2 0.735428 0.636889 0.553280 0.548748 0.465709 0.427669
Pattern_2 0.464930 0.473587 0.524313 0.609102 0.672922 0.790407
Pattern_2 0.844677 1.031856 1.112972 1.393905 1.426081 1.422645
Pattern_2 1.696426 1.634964 1.785798 1.735295 1.670275 1.616268
Pattern_2 1.433307 1.633759 1.332405 1.324371 1.217854 1.231634
Pattern_2 1.135033 1.121900 1.148984 1.101774 0.986652 1.212918
Pattern_2 1.326701 1.283394 1.262221 1.266001 1.370956 1.405261
Pattern_2 1.246836 1.306121 1.177160 1.276870 1.054298 0.907209
Pattern_2 0.852396 0.789768 0.631841 0.590609 0.516998 0.486729
Pattern_2 0.471403 0.479532 0.559725 0.591219 0.693014 0.857677
Pattern_2 0.894540 1.035001 1.126763 1.134563 1.322866 1.362537
Pattern_2 1.484544 1.534579 1.479551 1.608931 1.609806 1.672191
Pattern_2 1.485913 1.352018 1.405216 1.282160 1.250427 1.260258
Pattern_2 1.207952 1.185828 1.063335 1.171152 1.289579 1.289273
Pattern_2 1.277922 1.275956 1.512520 1.383564 1.421102 1.353784
Pattern_2 1.237552 1.309735 1.099779 1.074828 1.004008 0.993362
Pattern_2 0.846459 0.719217 0.658004 0.528948 0.444937 0.509997
Pattern_2 0.464890 0.492222 0.581669 0.655622 0.694815 0.782410
Pattern_2 1.002585 1.019972 1.242058 1.256608 1.359272 1.486392
Pattern_2 1.238671 1.526371 1.472312 1.343579 1.686319 1.592088
Pattern_2 1.379997 1.521851 1.481447 1.385705 1.444179 1.233453
Pattern_2 1.276640 1.314276 1.208992 1.201386 1.277503 1.266190
Pattern_2 1.231302 1.205460 1.250169 1.369965 1.395415 1.401389
Pattern_2 1.284853 1.235912 1.164293 1.064085 0.928203 0.840163
Pattern_2 0.781977 0.704835 0.570880 0.559629 0.489766 0.450240
Pattern_2 0.472685 0.483607 0.529367 0.660841 0.784578 0.838748
Pattern_2 0.946777 1.128082 1.227238 1.343697 1.434308 1.467176
Pattern_2 1.451768 1.492470 1.583133 1.501723 1.448539 1.520619
Pattern_2 1.515339 1.292269 1.388708 1.180324 1.327486 1.252638
Pattern_2 1.228533 1.112795 1.179447 1.214536 1.195553 1.262376
Pattern_2 1.404349 1.284362 1.325222 1.306133 1.392500 1.301199
Pattern_2 1.383019 1.274646 1.156536 1.087641 1.137410 1.025786

Pattern_3 0.737766 0.649043 0.621025 0.541801 0.485863 0.452938
Pattern_3 0.456596 0.437844 0.422425 0.462730 0.491490 0.530856
Pattern_3 0.650245 0.689791 0.787084 0.762565 1.039645 1.089716
Pattern_3 1.244593 1.243207 1.188698 1.269766 1.441527 1.446273
Pattern_3 1.283055 1.363105 1.386200 1.355142 1.201687 1.235549
Pattern_3 1.245912 1.190855 1.014453 1.136921 1.263781 1.192966
Pattern_3 1.305531 1.289050 1.227216 1.204307 1.307823 1.222329
Pattern_3 1.271864 1.185666 1.147958 1.037479 0.900566 0.765249
Pattern_3 0.646805 0.580076 0.525380 0.484949 0.376498 0.361452
Pattern_3 0.397834 0.433443 0.512235 0.527141 0.692555 0.791916
Pattern_3 0.931501 1.020675 1.289740 1.287431 1.446088 1.411549
Pattern_3 1.650121 1.741035 1.721184 1.628091 1.703547 1.600082
Pattern_3 1.402529 1.490214 1.421730 1.281360 1.158154 1.185611
Pattern_3 1.185184 1.124300 1.164054 1.117044 1.210617 1.158146
Pattern_3 1.292927 1.349454 1.363472 1.462333 1.353495 1.316813
Pattern_3 1.289657 1.323762 1.208269 1.121528 1.049456 0.826606
Pattern_3 0.767393 0.630153 0.565406 0.481784 0.411419 0.390055
Pattern_3 0.395637 0.460151 0.458814 0.563962 0.655567 0.820476
Pattern_3 1.004584 1.090357 1.095488 1.345489 1.273253 1.452774
Pattern_3 1.549865 1.581841 1.565538 1.588655 1.504594 1.362706
Pattern_3 1.497794 1.461448 1.319840 1.311256 1.275908 1.169807
Pattern_3 1.111285 1.197125 1.201065 1.164737 1.285341 1.334693
Pattern_3 1.377128 1.401204 1.428640 1.450661 1.293090 1.430851
Pattern_3 1.435111 1.270845 1.098237 1.170692 1.011523 0.890660
Pattern_3 0.787965 0.661476 0.515424 0.458763 0.399645 0.384377
Pattern_3 0.408677 0.453966 0.521898 0.664429 0.671779 0.852236
Pattern_3 1.012836 1.079131 1.194660 1.308121 1.332989 1.404124
Pattern_3 1.552677 1.517164 1.626421 1.478855 1.645604 1.655767
Pattern_3 1.531274 1.531903 1.404361 1.447904 1.216476 1.301251
Pattern_3 1.306122 1.254075 1.212278 1.274070 1.312271 1.244829
Pattern_3 1.310604 1.500543 1.461127 1.587894 1.480034 1.328058
Pattern_3 1.408881 1.216587 1.202515 1.039047 1.097903 0.800292
Pattern_3 0.755942 0.625016 0.574318 0.482320 0.422914 0.419978
Pattern_3 0.383168 0.443628 0.523596 0.594681 0.674319 0.855915
Pattern_3 1.030959 1.133604 1.237922 1.363507 1.380380 1.406017
Pattern_3 1.483670 1.572125 1.543425 1.520808 1.634136 1.517481
Pattern_3 1.381821 1.438465 1.278258 1.243039 1.270697 1.267761
Pattern_3 1.292596 1.157810 1.307801 1.168172 1.288226 1.374654
Pattern_3 1.173378 1.431910 1.372562 1.463387 1.333320 1.392623
Pattern_3 1.338742 1.223787 1.323022 1.122278 1.039626 0.883824

Pattern_4 0.726649 0.689872 0.610522 0.576190 0.576442 0.521852
Pattern_4 0.476959 0.480257 0.462815 0.490493 0.521893 0.576610
Pattern_4 0.617994 0.730110 0.795125 0.851802 0.991265 1.061559
Pattern_4 1.152584 1.260880 1.253324 1.323849 1.257618 1.440902
Pattern_4 1.350285 1.278442 1.300771 1.258347 1.165051 1.179282
Pattern_4 1.195687 1.327741 1.162356 1.195068 1.193995 1.095452
Pattern_4 1.153930 1.137993 1.216448 1.134975 1.263668 1.286112
Pattern_4 1.277720 1.088500 1.053578 0.893866 0.866314 0.759582
Pattern_4 0.698742 0.590576 0.571777 0.490096 0.441921 0.435228
Pattern_4 0.400866 0.504259 0.496836 0.614063 0.704662 0.781752
Pattern_4 0.993335 1.147641 1.139711 1.378439 1.412110 1.489613
Pattern_4 1.566024 1.643821 1.578517 1.549092 1.767380 1.602561
Pattern_4 1.602611 1.645876 1.362219 1.264128 1.243103 1.118837
Pattern_4 1.136772 1.172192 1.130129 1.082511 1.116708 1.308902
Pattern_4 1.300152 1.368434 1.283112 1.270267 1.223944 1.438962
Pattern_4 1.275602 1.399551 1.063237 1.084042 1.041241 0.827119
Pattern_4 0.747412 0.663359 0.604102 0.456869 0.406258 0.433418
Pattern_4 0.443856 0.471024 0.505813 0.589789 0.699940 0.781607
Pattern_4 0.908098 1.080702 1.276477 1.310317 1.367271 1.515032
Pattern_4 1.479095 1.601823 1.713663 1.521036 1.684021 1.564099
Pattern_4 1.446923 1.290555 1.286663 1.298751 1.171654 1.159165
Pattern_4 1.163055 1.145568 1.274053 1.218845 1.224327 1.242303
Pattern_4 1.310600 1.269295 1.358244 1.452774 1.405555 1.486251
Pattern_4 1.348580 1.334195 1.192525 1.040026 0.969064 0.853673
Pattern_4 0.743202 0.644066 0.556758 0.467258 0.463445 0.389204
Pattern_4 0.447284 0.483054 0.536463 0.672440 0.719621 0.881335
Pattern_4 1.057039 1.182756 1.252553 1.387246 1.415210 1.507950
Pattern_4 1.523714 1.360732 1.631771 1.495199 1.521308 1.593297
Pattern_4 1.672242 1.564659 1.321273 1.350272 1.366954 1.131185
Pattern_4 1.222836 1.290469 1.206396 1.146098 1.349157 1.230534
Pattern_4 1.371421 1.327342 1.365895 1.369453 1.424705 1.175013
Pattern_4 1.422985 1.373073 1.177826 1.052238 0.979786 0.882101
Pattern_4 0.737225 0.748400 0.546479 0.482747 0.446762 0.453430
Pattern_4 0.423134 0.446381 0.601661 0.668155 0.777080 0.879145
Pattern_4 0.943708 1.322436 1.219652 1.419462 1.351672 1.436661
Pattern_4 1.541735 1.616095 1.553244 1.509167 1.614861 1.483106
Pattern_4 1.474781 1.367754 1.430381 1.273596 1.165783 1.269501
Pattern_4 1.328238 1.276408 1.200918 1.359153 1.265934 1.396960
Pattern_4 1.358762 1.365013 1.511853 1.421338 1.282524 1.482996
Pattern_4 1.375750 1.242493 1.122236 1.187297 1.074740 0.902390

Pattern_5 0.814173 0.636453 0.641763 0.607731 0.593144 0.577825
Pattern_5 0.567664 0.540804 0.515958 0.572031 0.595539 0.648065
Pattern_5 0.622411 0.791315 0.780043 0.889310 0.963726 0.991272
Pattern_5 1.104270 1.245270 1.162659 1.234297 1.414947 1.382545
Pattern_5 1.403865 1.284903 1.397068 1.237669 1.302891 1.215383
Pattern_5 1.113085 1.104315 1.175718 1.157975 1.117064 1.172846
Pattern_5 1.167774 1.247109 1.298933 1.216271 1.118460 1.220857
Pattern_5 1.187985 1.182841 1.196622 0.931842 0.931828 0.823495
Pattern_5 0.780567 0.724524 0.610741 0.542965 0.525742 0.482341
Pattern_5 0.468741 0.527813 0.537834 0.663829 0.717653 0.849104
Pattern_5 0.905952 1.122931 1.141594 1.271010 1.640150 1.471883
Pattern_5 1.470672 1.559944 1.536977 1.638555 1.612804 1.607986
Pattern_5 1.526184 1.402031 1.364716 1.390751 1.266870 1.253971
Pattern_5 1.033456 1.011197 1.097883 1.176081 1.202815 1.194885
Pattern_5 1.141445 1.078950 1.302789 1.198032 1.246829 1.467778
Pattern_5 1.242204 1.228854 1.167969 1.115547 0.996990 0.923407
Pattern_5 0.824796 0.736428 0.625010 0.561840 0.538170 0.492770
Pattern_5 0.492903 0.535856 0.544797 0.612823 0.644166 0.811814
Pattern_5 1.009947 1.052178 1.190141 1.293038 1.393692 1.362020
Pattern_5 1.411283 1.598933 1.488425 1.627618 1.500613 1.518173
Pattern_5 1.429196 1.352526 1.231987 1.359299 1.265219 1.187191
Pattern_5 1.130081 1.156049 1.195146 1.176010 1.268281 1.237924
Pattern_5 1.391269 1.355595 1.219520 1.288268 1.373300 1.337935
Pattern_5 1.387872 1.195599 1.193586 1.030830 1.015441 0.946178
Pattern_5 0.699034 0.709610 0.561064 0.554362 0.504857 0.471769
Pattern_5 0.487864 0.551936 0.583469 0.647201 0.815568 0.930884
Pattern_5 0.972120 1.092412 1.210866 1.238903 1.296873 1.551828
Pattern_5 1.612264 1.649244 1.525203 1.672877 1.589706 1.542629
Pattern_5 1.489053 1.511280 1.263077 1.312197 1.433082 1.294902
Pattern_5 1.219860 1.191248 1.216505 1.200742 1.276510 1.147581
Pattern_5 1.302671 1.353278 1.324215 1.252649 1.389638 1.374921
Pattern_5 1.264851 1.194723 1.218265 1.095010 0.931283 0.940592
Pattern_5 0.799016 0.712069 0.635933 0.564343 0.532559 0.487253
Pattern_5 0.521353 0.571501 0.612469 0.633421 0.737310 0.883182
Pattern_5 0.909938 1.219916 1.303142 1.262624 1.378382 1.423868
Pattern_5 1.512604 1.436968 1.518389 1.577775 1.582114 1.379898
Pattern_5 1.396538 1.391737 1.368698 1.316758 1.100666 1.232118
Pattern_5 1.115590 1.295603 1.073295 1.209685 1.235934 1.258011
Pattern_5 1.225903 1.364981 1.339470 1.389332 1.231387 1.315183
Pattern_5 1.278147 1.178110 1.238666 1.117409 0.946588 0.899003

Pattern_6 0.766843 0.714821 0.721752 0.615824 0.555468 0.587390
Pattern_6 0.467010 0.490319 0.508315 0.561298 0.594305 0.620021
Pattern_6 0.682393 0.666107 0.822633 0.830881 0.949001 1.031224
Pattern_6 1.233463 1.212974 1.294103 1.287479 1.279430 1.233683
Pattern_6 1.394093 1.232669 1.182600 1.324620 1.119958 1.249471
Pattern_6 1.147123 1.146267 1.115051 1.100556 1.195480 1.053543
Pattern_6 1.215067 1.162266 1.213552 1.266594 1.200432 1.262466
Pattern_6 1.148886 0.990547 1.003297 0.921448 0.954601 0.765995
Pattern_6 0.662706 0.636641 0.567660 0.532111 0.392739 0.465188
Pattern_6 0.458317 0.460423 0.546271 0.597138 0.664348 0.819381
Pattern_6 0.846095 1.035963 1.161233 1.352674 1.385630 1.519035
Pattern_6 1.582890 1.551297 1.627165 1.583559 1.456065 1.539129
Pattern_6 1.617248 1.407591 1.478544 1.340149 1.171665 1.223114
Pattern_6 1.135644 1.199503 1.150234 1.076122 1.187629 1.148659
Pattern_6 1.103691 1.349991 1.272533 1.316450 1.423241 1.296471
Pattern_6 1.317544 1.146577 1.336526 1.139299 0.980563 0.917834
Pattern_6 0.806651 0.675493 0.612833 0.576233 0.495773 0.419682
Pattern_6 0.471902 0.465413 0.617542 0.587806 0.726957 0.764122
Pattern_6 1.009997 1.084127 1.236972 1.220120 1.380873 1.357120
Pattern_6 1.630445 1.481192 1.566337 1.566915 1.572325 1.457890
Pattern_6 1.435911 1.481303 1.369937 1.141081 1.229968 1.230980
Pattern_6 1.192289 1.179910 1.136743 1.165423 1.176940 1.263859
Pattern_6 1.320882 1.312821 1.320110 1.448206 1.382325 1.426727
Pattern_6 1.359356 1.301058 1.152204 1.086892 1.009514 0.965496
Pattern_6 0.794908 0.730098 0.550618 0.546273 0.474029 0.485223
Pattern_6 0.484563 0.537861 0.575704 0.670944 0.752585 0.933766
Pattern_6 0.920364 1.021748 1.227456 1.301889 1.347773 1.413025
Pattern_6 1.615602 1.636764 1.642747 1.530536 1.523520 1.600099
Pattern_6 1.589498 1.318493 1.408654 1.353836 1.325735 1.410602
Pattern_6 1.303241 1.284348 1.197889 1.232267 1.331323 1.422210
Pattern_6 1.276676 1.258379 1.347556 1.193737 1.428089 1.463638
Pattern_6 1.334692 1.098779 1.043591 1.041785 0.943014 0.921649
Pattern_6 0.780457 0.729789 0.605373 0.537315 0.478953 0.482713
Pattern_6 0.513321 0.519345 0.598128 0.631281 0.800211 1.018541
Pattern_6 0.959456 1.087634 1.302931 1.294639 1.476077 1.566686
Pattern_6 1.509953 1.515204 1.469845 1.461461 1.544099 1.479904
Pattern_6 1.401272 1.351957 1.341333 1.247355 1.322771 1.327888
Pattern_6 1.186075 1.292788 1.269588 1.199187 1.314183 1.289918
Pattern_6 1.341649 1.316999 1.226179 1.368783 1.299084 1.325650
Pattern_6 1.226631 1.287228 1.210285 1.039399 1.012034 0.940363

Pattern_7 0.784303 0.776507 0.726988 0.658617 0.620887 0.566132
Pattern_7 0.566748 0.540217 0.574052 0.602026 0.603984 0.666226
Pattern_7 0.650710 0.747994 0.844693 0.952653 0.955908 1.039837
Pattern_7 1.162372 1.326350 1.237595 1.235142 1.413761 1.331164
Pattern_7 1.311079 1.304452 1.316117 1.246374 1.324752 1.233959
Pattern_7 1.331530 1.155230 1.150450 1.236196 1.036064 1.119289
Pattern_7 1.274871 1.107645 1.184446 1.212732 1.148776 1.262328
Pattern_7 1.165078 1.125041 1.084560 1.019229 1.035508 0.887696
Pattern_7 0.745003 0.737544 0.604671 0.543649 0.541813 0.570225
Pattern_7 0.524809 0.509706 0.625034 0.602594 0.799876 0.882485
Pattern_7 1.034623 1.056267 1.153651 1.348035 1.396496 1.514115
Pattern_7 1.471004 1.674191 1.544419 1.645058 1.619486 1.573413
Pattern_7 1.509834 1.334373 1.444606 1.341772 1.206399 1.200496
Pattern_7 1.184883 1.149893 1.136905 1.123209 1.188280 1.157522
Pattern_7 1.206975 1.243422 1.360865 1.296245 1.328550 1.278682
Pattern_7 1.269837 1.352686 1.149186 1.101344 0.960646 0.908431
Pattern_7 0.844626 0.710059 0.664146 0.603016 0.582694 0.614359
Pattern_7 0.556887 0.565876 0.581910 0.687494 0.776149 0.823053
Pattern_7 1.009980 0.978212 1.095329 1.199580 1.440932 1.524077
Pattern_7 1.662447 1.475272 1.602612 1.449398 1.581686 1.387342
Pattern_7 1.456165 1.429122 1.368611 1.218539 1.329803 1.286156
Pattern_7 1.223741 1.217579 1.239201 1.238526 1.266572 1.287611
Pattern_7 1.324189 1.368728 1.298844 1.289927 1.301980 1.397535
Pattern_7 1.318854 1.386971 1.174098 1.123936 1.101321 0.928034
Pattern_7 0.778783 0.637727 0.618003 0.610847 0.535916 0.481370
Pattern_7 0.522615 0.583598 0.617865 0.761320 0.746606 0.929859
Pattern_7 0.948104 1.145322 1.254966 1.375117 1.393581 1.461015
Pattern_7 1.472729 1.593824 1.574286 1.476306 1.616245 1.562570
Pattern_7 1.509642 1.392796 1.353106 1.404248 1.351803 1.217292
Pattern_7 1.304693 1.276978 1.300431 1.207356 1.215879 1.276727
Pattern_7 1.395693 1.391851 1.267850 1.417184 1.234820 1.344286
Pattern_7 1.252567 1.248578 1.137035 1.163377 1.071094 0.935797
Pattern_7 0.885340 0.725946 0.676183 0.573808 0.540073 0.551436
Pattern_7 0.561991 0.607783 0.654652 0.673632 0.803478 0.943509
Pattern_7 0.999831 1.065128 1.302993 1.120972 1.452807 1.405194
Pattern_7 1.449197 1.498331 1.664836 1.634924 1.558741 1.545572
Pattern_7 1.450096 1.382107 1.244672 1.255510 1.276640 1.234877
Pattern_7 1.213162 1.319292 1.273968 1.408760 1.437427 1.289085
Pattern_7 1.280416 1.375353 1.370602 1.399938 1.330556 1.323597
Pattern_7 1.184397 1.339244 1.142499 1.123075 1.008368 0.966254

Pattern_8 0.836028 0.839188 0.777377 0.699086 0.566750 0.633450
Pattern_8 0.586401 0.564427 0.663787 0.608209 0.658548 0.697663
Pattern_8 0.696069 0.806893 0.865934 0.846523 1.005872 1.046502
Pattern_8 1.111348 1.197597 1.301549 1.306934 1.353962 1.262021
Pattern_8 1.223621 1.237372 1.296038 1.308646 1.214247 1.127141
Pattern_8 1.181329 1.148872 1.087848 1.172916 1.110347 1.241943
Pattern_8 1.117846 1.164037 1.333122 1.245726 1.187289 1.228222
Pattern_8 1.228061 1.027387 1.057485 1.106875 0.960208 0.842911
Pattern_8 0.825897 0.735100 0.661440 0.654528 0.533615 0.559719
Pattern_8 0.552927 0.618152 0.634119 0.700097 0.809936 0.861111
Pattern_8 0.993827 1.116564 1.181381 1.179565 1.423270 1.388771
Pattern_8 1.431841 1.436152 1.518819 1.549789 1.421333 1.587985
Pattern_8 1.459420 1.386305 1.229514 1.342904 1.252241 1.185050
Pattern_8 1.141354 1.170758 1.046625 1.092460 1.047698 1.134783
Pattern_8 1.286877 1.262272 1.231901 1.360908 1.326976 1.230463
Pattern_8 1.354669 1.238708 1.143787 1.096210 1.058791 0.936176
Pattern_8 0.826905 0.712311 0.686548 0.637894 0.599599 0.523824
Pattern_8 0.587648 0.618052 0.630122 0.762890 0.764705 0.849663
Pattern_8 0.987127 0.974888 1.206163 1.288167 1.426005 1.341705
Pattern_8 1.571177 1.538222 1.450435 1.459855 1.533035 1.457041
Pattern_8 1.430634 1.426665 1.241990 1.225403 1.281372 1.199702
Pattern_8 1.113218 1.131202 1.154870 1.249624 1.166935 1.193243
Pattern_8 1.348176 1.127925 1.326675 1.314060 1.321154 1.311468
Pattern_8 1.282345 1.351440 1.167253 1.220693 0.994892 0.845328
Pattern_8 0.878441 0.752830 0.678740 0.625645 0.568778 0.585479
Pattern_8 0.554983 0.625113 0.599208 0.759119 0.810077 0.912306
Pattern_8 1.104337 1.136392 1.212458 1.267614 1.304615 1.420486
Pattern_8 1.493523 1.564725 1.518554 1.612770 1.387637 1.373310
Pattern_8 1.551709 1.350856 1.169834 1.343494 1.203742 1.228235
Pattern_8 1.283287 1.212700 1.268517 1.264379 1.155056 1.190623
Pattern_8 1.275884 1.322917 1.281148 1.337473 1.332595 1.238500
Pattern_8 1.322028 1.231170 1.230878 1.117829 1.085838 0.919289
Pattern_8 0.929325 0.776132 0.670896 0.614630 0.557334 0.550193
Pattern_8 0.539366 0.552854 0.603368 0.781140 0.872125 0.890112
Pattern_8 0.995592 1.082287 1.169396 1.213207 1.406074 1.491590
Pattern_8 1.493794 1.445879 1.424791 1.313620 1.498465 1.436959
Pattern_8 1.380936 1.315555 1.243130 1.215346 1.168502 1.159982
Pattern_8 1.164287 1.131096 1.201972 1.291175 1.188464 1.125395
Pattern_8 1.292451 1.236652 1.389298 1.161018 1.354413 1.361908
Pattern_8 1.260181 1.208221 1.117616 1.179703 1.188482 0.921621

Pattern_9 0.682073 0.703149 0.629830 0.588495 0.545863 0.540966
Pattern_9 0.518370 0.528192 0.456729 0.489846 0.579731 0.620623
Pattern_9 0.600174 0.713575 0.777288 0.899328 0.900001 1.022880
Pattern_9 1.165690 1.140370 1.245868 1.289989 1.236747 1.361616
Pattern_9 1.312115 1.298141 1.243935 1.359900 1.212390 1.148652
Pattern_9 1.225997 1.309330 1.186139 1.171321 1.171806 1.212224
Pattern_9 1.244030 1.108114 1.288048 1.219565 1.178720 1.211954
Pattern_9 1.231503 1.126148 1.041716 1.139352 0.854197 0.811753
Pattern_9 0.769995 0.609802 0.541013 0.518923 0.466235 0.432329
Pattern_9 0.407187 0.446983 0.556330 0.522674 0.734163 0.722926
Pattern_9 0.876013 0.915822 1.116170 1.238798 1.402658 1.614418
Pattern_9 1.607578 1.745069 1.537510 1.702098 1.685480 1.508765
Pattern_9 1.594127 1.494283 1.310362 1.387991 1.276174 1.101801
Pattern_9 1.166946 1.133419 1.169736 1.154504 1.167326 1.257864
Pattern_9 1.254367 1.393424 1.233683 1.339783 1.393932 1.380882
Pattern_9 1.379545 1.158222 1.211603 1.055363 0.974857 0.871087
Pattern_9 0.800751 0.623658 0.587718 0.474771 0.444072 0.405892
Pattern_9 0.432460 0.461044 0.528286 0.585386 0.710382 0.762079
Pattern_9 0.967616 1.023083 1.199754 1.413394 1.338238 1.564025
Pattern_9 1.647669 1.573414 1.512193 1.617409 1.510135 1.539109
Pattern_9 1.476192 1.429257 1.545749 1.288739 1.191210 1.204910
Pattern_9 1.208344 1.177155 1.073438 1.292542 1.374331 1.336939
Pattern_9 1.327832 1.521893 1.385510 1.509239 1.311049 1.357318
Pattern_9 1.323921 1.453099 1.211774 1.106933 1.012927 0.819225
Pattern_9 0.689433 0.624310 0.549152 0.521568 0.466179 0.375075
Pattern_9 0.422594 0.473807 0.587819 0.685024 0.771524 0.841313
Pattern_9 0.878743 1.138267 1.258113 1.220106 1.392630 1.328878
Pattern_9 1.586190 1.557225 1.517923 1.431905 1.495655 1.634554
Pattern_9 1.519792 1.410487 1.281994 1.269149 1.410259 1.314879
Pattern_9 1.280450 1.285660 1.181515 1.267259 1.252608 1.324801
Pattern_9 1.394932 1.331221 1.386692 1.403343 1.434136 1.419558
Pattern_9 1.263186 1.227516 1.248628 1.004793 1.007279 0.967111
Pattern_9 0.773963 0.687885 0.611649 0.488147 0.458082 0.425610
Pattern_9 0.428550 0.487459 0.552745 0.613930 0.788354 0.842912
Pattern_9 0.973359 1.130577 1.148132 1.441821 1.420502 1.486708
Pattern_9 1.556690 1.598104 1.546707 1.539741 1.459389 1.479818
Pattern_9 1.469878 1.425209 1.367189 1.244246 1.220513 1.230164
Pattern_9 1.310994 1.156992 1.310100 1.306159 1.303685 1.239994
Pattern_9 1.347646 1.378742 1.412562 1.385930 1.469252 1.350384
Pattern_9 1.411630 1.375440 1.222883 1.128891 0.991014 0.946549

Pattern_10 0.703712 0.721504 0.599206 0.569734 0.569108 0.508232
Pattern_10 0.477923 0.512201 0.564743 0.532579 0.564559 0.616745
Pattern_10 0.645392 0.778602 0.835047 0.981625 0.913974 1.033278
Pattern_10 1.223029 1.114104 1.297791 1.332745 1.443845 1.314535
Pattern_10 1.314318 1.318135 1.215589 1.346793 1.208581 1.147453
Pattern_10 1.197377 1.138176 1.319960 1.078023 1.247697 1.091025
Pattern_10 1.175307 1.231582 1.343980 1.280873 1.329826 1.151743
Pattern_10 1.182984 1.219294 1.174405 0.970303 1.004355 0.738399
Pattern_10 0.728272 0.643905 0.529894 0.444064 0.483704 0.437793