; Filename: ../LeakDB/CCWI-WDSA2018/Dataset_Generator/networks/Hanoi_CMH.inp
; WNTR: 0.3.1
; Created: 2022-07-22 11:42:43
[TITLE]

[JUNCTIONS]
;ID                      Elevation       Demand Pattern                 
 2                                 30          247.22 Pattern_2                  ;
 3                                 30          236.11 Pattern_3                  ;
 4                                 30           36.11 Pattern_4                  ;
 5                                 30          201.39 Pattern_5                  ;
 6                                 30          279.17 Pattern_6                  ;
 7                                 30             375 Pattern_7                  ;
 8                                 30          152.78 Pattern_8                  ;
 9                                 30          145.83 Pattern_9                  ;
 10                                30          145.83 Pattern_10                 ;
 11                                30          138.89 Pattern_11                 ;
 12                                30          155.56 Pattern_12                 ;
 13                                30          261.11 Pattern_13                 ;
 14                                30          170.83 Pattern_14                 ;
 15                                30           77.78 Pattern_15                 ;
 16                                30           86.11 Pattern_16                 ;
 17                                30          240.28 Pattern_17                 ;
 18                                30          373.61 Pattern_18                 ;
 19                                30           16.67 Pattern_19                 ;
 20                                30          354.17 Pattern_20                 ;
 21                                30          258.33 Pattern_21                 ;
 22                                30          134.72 Pattern_22                 ;
 23                                30          290.28 Pattern_23                 ;
 24                                30          227.78 Pattern_24                 ;
 25                                30           47.22 Pattern_25                 ;
 26                                30             250 Pattern_26                 ;
 27                                30          102.78 Pattern_27                 ;
 28                                30           80.56 Pattern_28                 ;
 29                                30             100 Pattern_29                 ;
 30                                30             100 Pattern_30                 ;
 31                                30           29.17 Pattern_31                 ;
 32                                30          223.61 Pattern_32                 ;

[RESERVOIRS]
;ID                                   Head                  Pattern
 1                                100                            ;

[TANKS]
;ID                              Elevation           Init Level            Min Level            Max Level             Diameter           Min Volume Volume Curve         Overflow            

[PIPES]
;ID                   Node1                Node2                              Length             Diameter            Roughness           Minor Loss               Status
 1                    1                    2                                100            1016             130               0                 Open   ;
 2                    2                    3                               1350            1016             130               0                 Open   ;
 3                    3                    4                                900            1016             130               0                 Open   ;
 4                    4                    5                               1150            1016             130               0                 Open   ;
 5                    5                    6                               1450            1016             130               0                 Open   ;
 6                    6                    7                                450            1016             130               0                 Open   ;
 7                    7                    8                                850            1016             130               0                 Open   ;
 8                    8                    9                                850            1016             130               0                 Open   ;
 9                    9                    10                               800            1016             130               0                 Open   ;
 10                   10                   11                               950             762             130               0                 Open   ;
 11                   11                   12                              1200             762             130               0                 Open   ;
 12                   12                   13                              3500           609.6             130               0                 Open   ;
 13                   10                   14                               800           406.4             130               0                 Open   ;
 14                   14                   15                               500           406.4             130               0                 Open   ;
 15                   15                   16                               550           304.8             130               0                 Open   ;
 16                   17                   16                              2730           406.4             130               0                 Open   ;
 17                   17                   18                              1750             508             130               0                 Open   ;
 18                   18                   19                               800           609.6             130               0                 Open   ;
 19                   19                   3                                400           609.6             130               0                 Open   ;
 20                   3                    20                              2200            1016             130               0                 Open   ;
 21                   20                   21                              1500             508             130               0                 Open   ;
 22                   21                   22                               500           304.8             130               0                 Open   ;
 23                   20                   23                              2650            1016             130               0                 Open   ;
 24                   23                   24                              1230             762             130               0                 Open   ;
 25                   24                   25                              1300             762             130               0                 Open   ;
 26                   26                   25                               850             508             130               0                 Open   ;
 27                   27                   26                               300           304.8             130               0                 Open   ;
 28                   16                   27                               750           304.8             130               0                 Open   ;
 29                   23                   28                              1500           406.4             130               0                 Open   ;
 30                   28                   29                              2000           406.4             130               0                 Open   ;
 31                   29                   30                              1600           304.8             130               0                 Open   ;
 32                   30                   31                               150           304.8             130               0                 Open   ;
 33                   32                   31                               860           406.4             130               0                 Open   ;
 34                   25                   32                               950             508             130               0                 Open   ;

[PUMPS]
;ID                   Node1                Node2                Properties          

[VALVES]
;ID                   Node1                Node2                            Diameter Type              Setting           Minor Loss

[TAGS]
;type      name       tag       

[DEMANDS]
;ID        Demand     Pattern   

[STATUS]
;ID        Setting   
[PATTERNS]
;ID        Multipliers

Pattern_2 0.775117 0.647053 0.662829 0.589194 0.615103 0.584911
Pattern_2 0.541215 0.582891 0.557967 0.546494 0.565140 0.676579
Pattern_2 0.639149 0.750433 0.807201 0.936848 1.031394 1.101013
Pattern_2 1.095941 1.268921 1.274604 1.226841 1.259448 1.377746
Pattern_2 1.392842 1.231570 1.297376 1.278742 1.197165 1.371664
Pattern_2 1.180137 1.001666 1.159195 1.152747 1.290109 1.186873
Pattern_2 1.316702 1.160983 1.202689 1.219702 1.331567 1.284762
Pattern_2 1.156284 1.061632 1.109831 0.954650 1.004994 0.804874
Pattern_2 0.725555 0.653061 0.529697 0.550505 0.479456 0.499919
Pattern_2 0.525848 0.528100 0.559166 0.622317 0.781078 0.884392
Pattern_2 1.073790 1.050264 1.148981 1.333059 1.258919 1.505061
Pattern_2 1.651902 1.553681 1.582361 1.684304 1.702958 1.540099
Pattern_2 1.527814 1.310521 1.456947 1.362236 1.227904 1.153817
Pattern_2 1.159290 1.120661 1.181309 1.067824 1.100318 1.202882
Pattern_2 1.304319 1.380278 1.394223 1.368104 1.376506 1.435799
Pattern_2 1.345451 1.310398 1.204831 1.059535 0.991875 0.973713
Pattern_2 0.796742 0.735772 0.619262 0.544064 0.557427 0.502486
Pattern_2 0.528790 0.513967 0.564548 0.713609 0.790038 0.767576
Pattern_2 0.964579 1.078604 1.229052 1.297659 1.297900 1.457969
Pattern_2 1.518052 1.592295 1.587043 1.731247 1.566666 1.510934
Pattern_2 1.384047 1.342674 1.426074 1.312559 1.144257 1.207824
Pattern_2 1.119135 1.184540 1.247087 1.169216 1.203092 1.247240
Pattern_2 1.252543 1.315422 1.407594 1.523554 1.428026 1.398955
Pattern_2 1.313312 1.290029 1.303249 1.083178 1.059420 0.941350
Pattern_2 0.838121 0.652908 0.615470 0.555360 0.549377 0.542969
Pattern_2 0.544893 0.546576 0.556361 0.721378 0.732000 0.847561
Pattern_2 1.105266 1.088313 1.179922 1.347989 1.322526 1.440951
Pattern_2 1.526197 1.395088 1.691727 1.588061 1.510307 1.607000
Pattern_2 1.492201 1.484329 1.397511 1.262774 1.402354 1.296019
Pattern_2 1.171866 1.251644 1.249945 1.228460 1.100929 1.273481
Pattern_2 1.242058 1.278922 1.349918 1.338657 1.294869 1.297512
Pattern_2 1.225272 1.318959 1.259138 1.061026 1.063975 0.884429
Pattern_2 0.888865 0.752400 0.677074 0.555659 0.526303 0.475143
Pattern_2 0.544358 0.534203 0.656305 0.736224 0.772697 0.952974
Pattern_2 1.031827 1.167514 1.280687 1.308289 1.424539 1.518774
Pattern_2 1.484421 1.469042 1.605883 1.399963 1.473998 1.541624
Pattern_2 1.475528 1.380978 1.344371 1.338395 1.383640 1.305115
Pattern_2 1.272025 1.265265 1.291343 1.317428 1.340925 1.357928
Pattern_2 1.259592 1.401826 1.264015 1.367802 1.499171 1.371647
Pattern_2 1.289710 1.241141 1.224191 1.136816 1.015910 0.954121

Pattern_3 0.710342 0.677881 0.612971 0.609050 0.586146 0.517501
Pattern_3 0.526525 0.506753 0.557562 0.543070 0.603316 0.637258
Pattern_3 0.754286 0.785822 0.848502 0.914640 0.934937 1.062333
Pattern_3 1.115052 1.177529 1.255979 1.275187 1.353391 1.376982
Pattern_3 1.283650 1.384784 1.355294 1.336838 1.325081 1.365871
Pattern_3 1.266427 1.093492 1.166305 1.206033 1.208728 1.315523
Pattern_3 1.190709 1.242785 1.300303 1.234558 1.281964 1.352582
Pattern_3 1.191113 1.138587 1.010015 0.909564 0.857386 0.884790
Pattern_3 0.716680 0.623271 0.521230 0.506898 0.492538 0.511492
Pattern_3 0.495947 0.521035 0.581651 0.651825 0.700590 0.861006
Pattern_3 0.932801 1.070710 1.151851 1.301302 1.444156 1.462605
Pattern_3 1.528686 1.477420 1.723600 1.622344 1.650059 1.540862
Pattern_3 1.531820 1.398331 1.528693 1.419591 1.249136 1.326168
Pattern_3 1.227570 1.180865 1.071717 1.063517 1.114432 1.140316
Pattern_3 1.265793 1.233209 1.390701 1.380756 1.394725 1.378921
Pattern_3 1.234694 1.252081 1.206492 1.182399 1.071799 0.977689
Pattern_3 0.790626 0.732933 0.608572 0.597542 0.549458 0.509023
Pattern_3 0.499941 0.520602 0.568209 0.668328 0.734189 0.902733
Pattern_3 0.965466 1.060240 1.215559 1.204981 1.466593 1.478592
Pattern_3 1.601089 1.614146 1.719199 1.544293 1.619275 1.590537
Pattern_3 1.382854 1.362773 1.390667 1.317755 1.240233 1.261713
Pattern_3 1.163316 1.304143 1.215482 1.177502 1.206361 1.296836
Pattern_3 1.353486 1.419917 1.376789 1.317812 1.361195 1.319386
Pattern_3 1.458887 1.156275 1.181211 1.042451 0.955644 0.805138
Pattern_3 0.838232 0.673954 0.548536 0.536843 0.494820 0.484772
Pattern_3 0.486872 0.481297 0.569939 0.705002 0.754220 0.951944
Pattern_3 1.022071 1.137391 1.275996 1.270856 1.415906 1.496228
Pattern_3 1.492368 1.585796 1.489831 1.578369 1.554849 1.580421
Pattern_3 1.519754 1.429370 1.443204 1.313652 1.354409 1.351518
Pattern_3 1.313534 1.356278 1.323382 1.136105 1.324915 1.359128
Pattern_3 1.285120 1.447643 1.366489 1.362444 1.275252 1.338766
Pattern_3 1.269515 1.362828 1.201018 1.100505 1.003260 0.951306
Pattern_3 0.826559 0.793979 0.657458 0.529334 0.530889 0.464068
Pattern_3 0.514658 0.531949 0.621563 0.698145 0.830732 0.922473
Pattern_3 1.135675 1.121124 1.252628 1.332486 1.486295 1.582779
Pattern_3 1.457902 1.696419 1.868356 1.635176 1.343661 1.478737
Pattern_3 1.447375 1.340333 1.270047 1.260163 1.357816 1.337186
Pattern_3 1.387651 1.264986 1.265329 1.377205 1.211892 1.327738
Pattern_3 1.429040 1.476006 1.355730 1.358467 1.465584 1.368135
Pattern_3 1.509108 1.330641 1.202247 1.124129 1.019980 0.805072

Pattern_4 0.749423 0.696743 0.677965 0.613650 0.581876 0.595010
Pattern_4 0.559946 0.610380 0.593979 0.573277 0.597066 0.598791
Pattern_4 0.675644 0.801411 0.868070 0.860317 1.031578 1.051769
Pattern_4 1.080839 1.235938 1.178738 1.341745 1.293566 1.342323
Pattern_4 1.340988 1.327202 1.268902 1.282535 1.322471 1.199737
Pattern_4 1.189404 1.081990 1.169162 1.129875 1.144507 1.104371
Pattern_4 1.213563 1.271116 1.207070 1.306672 1.259158 1.204393
Pattern_4 1.250476 1.201010 1.125639 0.939781 0.900439 0.840316
Pattern_4 0.737055 0.711970 0.566690 0.551833 0.533423 0.526180
Pattern_4 0.504321 0.553675 0.647602 0.657497 0.749926 0.792284
Pattern_4 0.981405 1.022734 1.201451 1.357847 1.488637 1.479421
Pattern_4 1.618079 1.648482 1.830424 1.679427 1.703701 1.448700
Pattern_4 1.581412 1.425796 1.299657 1.310233 1.189204 1.159178
Pattern_4 1.208843 1.140732 1.042760 1.048072 1.120472 1.113137
Pattern_4 1.337758 1.418239 1.274714 1.429544 1.303940 1.321436
Pattern_4 1.338574 1.347191 1.185814 1.190178 1.024035 0.945241
Pattern_4 0.793661 0.784711 0.612160 0.564626 0.510996 0.527681
Pattern_4 0.480462 0.540332 0.616532 0.702081 0.755087 0.939132
Pattern_4 0.989410 0.989087 1.216579 1.225920 1.338755 1.460286
Pattern_4 1.504604 1.625292 1.413450 1.673271 1.571353 1.522064
Pattern_4 1.494440 1.314892 1.261130 1.227801 1.215364 1.116442
Pattern_4 1.021919 1.185956 1.108232 1.266302 1.211662 1.172982
Pattern_4 1.253421 1.482842 1.398176 1.378421 1.396310 1.307449
Pattern_4 1.304574 1.208759 1.200346 1.177952 1.098127 0.925099
Pattern_4 0.828972 0.681756 0.695931 0.513478 0.589050 0.516802
Pattern_4 0.547773 0.617418 0.635238 0.681253 0.918936 0.843960
Pattern_4 1.050782 1.143770 1.232583 1.318185 1.411183 1.483524
Pattern_4 1.542846 1.614872 1.559913 1.651506 1.571749 1.546884
Pattern_4 1.463568 1.420015 1.280714 1.335413 1.326163 1.343062
Pattern_4 1.219720 1.250462 1.307370 1.081629 1.214067 1.336326
Pattern_4 1.421671 1.448626 1.353289 1.318486 1.388862 1.372105
Pattern_4 1.442459 1.315834 1.052472 1.041848 1.040329 0.943899
Pattern_4 0.800504 0.838460 0.667855 0.570391 0.568707 0.543022
Pattern_4 0.587154 0.542247 0.635364 0.741971 0.871426 0.969077
Pattern_4 0.962630 1.158677 1.340750 1.356526 1.560827 1.465501
Pattern_4 1.594989 1.563186 1.516725 1.447347 1.456459 1.442612
Pattern_4 1.349456 1.285549 1.323957 1.372826 1.231934 1.300634
Pattern_4 1.172506 1.287958 1.171164 1.310275 1.250479 1.357031
Pattern_4 1.383833 1.295507 1.215960 1.428287 1.166792 1.408145
Pattern_4 1.383580 1.322265 1.240996 1.011913 1.054954 0.962597

Pattern_5 0.790316 0.806332 0.763678 0.698344 0.633912 0.646738
Pattern_5 0.629870 0.601847 0.627305 0.577307 0.615246 0.622813
Pattern_5 0.714322 0.695670 0.836067 0.893225 0.911336 1.078318
Pattern_5 1.155152 1.197527 1.249919 1.345086 1.359884 1.356625
Pattern_5 1.400980 1.275109 1.342181 1.226489 1.326440 1.267467
Pattern_5 1.247782 1.298040 1.221798 1.167059 1.173479 1.228234
Pattern_5 1.275756 1.230124 1.224802 1.157950 1.306068 1.291406
Pattern_5 1.220755 1.128966 1.053505 1.055466 0.904783 0.865890
Pattern_5 0.805235 0.705839 0.641549 0.617774 0.629663 0.543860
Pattern_5 0.557163 0.578121 0.603338 0.677335 0.653725 0.901443
Pattern_5 0.998572 1.124809 1.189781 1.241756 1.383383 1.618603
Pattern_5 1.515035 1.553595 1.561439 1.472533 1.580511 1.509110
Pattern_5 1.631765 1.475827 1.404686 1.327740 1.318992 1.211338
Pattern_5 1.173040 1.245911 1.221871 1.124570 1.167401 1.280048
Pattern_5 1.290059 1.299610 1.454177 1.253853 1.259016 1.325751
Pattern_5 1.264100 1.269450 1.290110 1.166961 1.013958 0.994282
Pattern_5 0.916664 0.769195 0.740617 0.613814 0.603304 0.593159
Pattern_5 0.602899 0.615501 0.651174 0.713457 0.800427 0.841100
Pattern_5 0.965494 1.089795 1.225547 1.369433 1.304059 1.392808
Pattern_5 1.484420 1.432145 1.489970 1.523604 1.611224 1.430221
Pattern_5 1.271504 1.447519 1.353496 1.321020 1.264513 1.225101
Pattern_5 1.259174 1.143660 1.222057 1.208781 1.273153 1.294000
Pattern_5 1.213804 1.382900 1.316869 1.547812 1.451348 1.370234
Pattern_5 1.334980 1.256984 1.195280 1.059993 0.953650 0.905691
Pattern_5 0.817542 0.774155 0.708083 0.551027 0.604933 0.594342
Pattern_5 0.594740 0.622107 0.673644 0.666010 0.844315 0.940355
Pattern_5 1.010839 1.231169 1.193665 1.217076 1.344670 1.470371
Pattern_5 1.389986 1.574457 1.507081 1.560123 1.512212 1.622729
Pattern_5 1.368052 1.360090 1.319021 1.398107 1.384121 1.256692
Pattern_5 1.321362 1.253744 1.226773 1.365572 1.276884 1.326634
Pattern_5 1.368794 1.321640 1.419460 1.401288 1.430515 1.185353
Pattern_5 1.286974 1.038619 1.121774 1.070860 1.067966 0.967547
Pattern_5 0.822344 0.775784 0.657923 0.641674 0.582395 0.533170
Pattern_5 0.569138 0.592547 0.593801 0.696880 0.883289 0.904019
Pattern_5 1.038464 1.050271 1.235126 1.195628 1.438473 1.344231
Pattern_5 1.408244 1.504061 1.398025 1.489403 1.475273 1.519968
Pattern_5 1.469678 1.352441 1.299720 1.386812 1.466601 1.299568
Pattern_5 1.160039 1.233831 1.287240 1.171479 1.409166 1.237173
Pattern_5 1.322551 1.386960 1.439107 1.389562 1.438548 1.309156
Pattern_5 1.271841 1.209879 1.189847 1.086628 1.030877 1.012901

Pattern_6 0.768349 0.684570 0.643451 0.667579 0.659861 0.584985
Pattern_6 0.538497 0.580988 0.500235 0.607508 0.646445 0.636722
Pattern_6 0.666265 0.764282 0.871994 0.968496 0.976306 1.126731
Pattern_6 1.088457 1.337009 1.322123 1.385607 1.305788 1.333599
Pattern_6 1.408474 1.314829 1.282262 1.299774 1.200985 1.303952
Pattern_6 1.250460 1.133185 1.172124 1.159075 1.278260 1.207688
Pattern_6 1.269338 1.196401 1.246423 1.195215 1.270637 1.238091
Pattern_6 1.193081 1.183542 1.110295 0.992332 0.993723 0.867549
Pattern_6 0.715937 0.777133 0.599253 0.578847 0.490949 0.507607
Pattern_6 0.532225 0.506956 0.541416 0.633778 0.738004 0.861227
Pattern_6 0.960935 1.017623 1.172836 1.355461 1.482416 1.559497
Pattern_6 1.553663 1.518301 1.529649 1.430503 1.707414 1.458387
Pattern_6 1.489084 1.389651 1.380341 1.382860 1.395841 1.133652
Pattern_6 1.161685 1.157738 1.158320 1.108957 1.216537 1.186284
Pattern_6 1.215282 1.234247 1.414912 1.333167 1.476766 1.288332
Pattern_6 1.258426 1.390750 1.214269 1.090578 1.061000 0.812880
Pattern_6 0.788143 0.709009 0.682043 0.632334 0.544223 0.557965
Pattern_6 0.568641 0.578554 0.625650 0.681567 0.781750 0.945011
Pattern_6 1.014674 1.132070 1.176374 1.321956 1.371495 1.457231
Pattern_6 1.454747 1.660933 1.606807 1.418657 1.508282 1.559556
Pattern_6 1.502584 1.373534 1.304342 1.297231 1.298458 1.240447
Pattern_6 1.232537 1.246685 1.166712 1.207879 1.196053 1.328257
Pattern_6 1.325666 1.348187 1.358281 1.360155 1.280627 1.335500
Pattern_6 1.353639 1.299048 1.126530 1.020947 1.003088 0.866813
Pattern_6 0.668420 0.727902 0.652424 0.528125 0.528961 0.536538
Pattern_6 0.552603 0.619972 0.600337 0.701796 0.842416 0.956922
Pattern_6 0.936046 1.115391 1.126917 1.356788 1.257063 1.503151
Pattern_6 1.435295 1.469047 1.540876 1.546408 1.619514 1.653228
Pattern_6 1.624562 1.340586 1.377005 1.417838 1.252494 1.232366
Pattern_6 1.286754 1.376470 1.370887 1.168044 1.245115 1.364693
Pattern_6 1.180035 1.320143 1.366789 1.319358 1.300611 1.272655
Pattern_6 1.261879 1.291040 1.234028 1.140864 1.032316 0.969030
Pattern_6 0.829588 0.671892 0.600569 0.598296 0.531045 0.564586
Pattern_6 0.534947 0.600700 0.560897 0.717286 0.793348 0.824309
Pattern_6 1.042259 1.147742 1.228491 1.314435 1.397242 1.464696
Pattern_6 1.541948 1.684634 1.397761 1.592250 1.621510 1.363589
Pattern_6 1.572761 1.359111 1.326291 1.389787 1.277751 1.303451
Pattern_6 1.190382 1.204813 1.281857 1.274713 1.301234 1.271246
Pattern_6 1.276196 1.364621 1.257963 1.467273 1.351985 1.167454
Pattern_6 1.239076 1.249447 1.220018 1.099562 1.074892 0.945497

Pattern_7 0.691339 0.670314 0.586859 0.530196 0.496450 0.412174
Pattern_7 0.418254 0.470782 0.439210 0.419808 0.495278 0.656671
Pattern_7 0.484209 0.702513 0.832527 0.873957 1.083902 1.078259
Pattern_7 1.275172 1.437726 1.436892 1.551248 1.442163 1.348594
Pattern_7 1.442980 1.512611 1.539213 1.261973 1.266671 1.153914
Pattern_7 1.247018 1.180323 1.255007 1.120276 1.233397 1.257693
Pattern_7 1.308061 1.245806 1.278651 1.236535 1.317663 1.309489
Pattern_7 1.288398 1.244925 1.117196 0.975450 0.900622 0.798235
Pattern_7 0.644982 0.568650 0.443794 0.390187 0.361484 0.309018
Pattern_7 0.343688 0.351612 0.411371 0.533076 0.707246 0.791008
Pattern_7 0.882858 0.979663 1.234102 1.386401 1.452320 1.632020
Pattern_7 1.833018 1.845738 1.859854 1.715020 1.807824 1.714903
Pattern_7 1.658379 1.582645 1.300836 1.471848 1.343951 1.116244
Pattern_7 1.247369 1.132840 1.097096 1.158628 1.199243 1.235293
Pattern_7 1.302694 1.393022 1.246758 1.325642 1.364220 1.245949
Pattern_7 1.347902 1.470405 1.278049 1.135219 1.044771 0.864437
Pattern_7 0.721771 0.619348 0.482656 0.397915 0.339335 0.328389
Pattern_7 0.366574 0.399085 0.421998 0.552924 0.688431 0.795336
Pattern_7 0.887422 1.111823 1.164964 1.371087 1.487493 1.460786
Pattern_7 1.629250 1.616116 1.589653 1.652046 1.636978 1.567390
Pattern_7 1.553181 1.375573 1.422171 1.338335 1.316977 1.265938
Pattern_7 1.209433 1.124764 1.203839 1.214718 1.337313 1.365258
Pattern_7 1.317596 1.307744 1.497111 1.453581 1.460157 1.475472
Pattern_7 1.422986 1.432123 1.258886 1.229696 1.053591 0.864522
Pattern_7 0.750848 0.652136 0.466715 0.385262 0.340582 0.360594
Pattern_7 0.408833 0.436932 0.488431 0.632027 0.688596 0.834342
Pattern_7 1.052488 1.110107 1.362819 1.392910 1.652484 1.500996
Pattern_7 1.617385 1.774447 1.828012 1.701855 1.752477 1.788977
Pattern_7 1.601088 1.496947 1.474967 1.339357 1.417415 1.378490
Pattern_7 1.175061 1.254071 1.206616 1.193107 1.282586 1.405257
Pattern_7 1.356241 1.378155 1.510238 1.317268 1.422669 1.388529
Pattern_7 1.404725 1.284952 1.321369 1.235408 1.039048 0.895161
Pattern_7 0.712159 0.651318 0.523571 0.416991 0.372683 0.343694
Pattern_7 0.334357 0.366717 0.479874 0.631577 0.756516 0.850756
Pattern_7 1.085891 1.181619 1.291050 1.491832 1.541956 1.645949
Pattern_7 1.697214 1.733013 1.817217 1.807610 1.582055 1.628289
Pattern_7 1.626138 1.375341 1.405712 1.395175 1.381469 1.286215
Pattern_7 1.232982 1.264895 1.216667 1.326328 1.452122 1.331219
Pattern_7 1.441760 1.474240 1.418442 1.439592 1.457516 1.468586
Pattern_7 1.530821 1.369141 1.308901 1.107494 0.936354 0.860087

Pattern_8 0.781178 0.749084 0.740904 0.639945 0.632593 0.584560
Pattern_8 0.558419 0.529401 0.550831 0.547085 0.619306 0.619716
Pattern_8 0.725880 0.776425 0.736664 0.851605 0.828180 1.119933
Pattern_8 1.147214 1.282127 1.237151 1.332904 1.312824 1.348195
Pattern_8 1.366574 1.339436 1.348166 1.363285 1.305946 1.329210
Pattern_8 1.251399 1.138790 1.103475 1.224692 1.126766 1.330663
Pattern_8 1.261388 1.283182 1.298017 1.226594 1.375035 1.076201
Pattern_8 1.315719 1.074000 1.106178 1.026391 0.992249 0.857973
Pattern_8 0.685402 0.706357 0.595750 0.620168 0.536579 0.561422
Pattern_8 0.490077 0.565825 0.622143 0.679748 0.660855 0.818106
Pattern_8 1.063535 0.999900 1.188925 1.225976 1.389398 1.556049
Pattern_8 1.613193 1.681554 1.688336 1.538224 1.674073 1.573515
Pattern_8 1.542302 1.482840 1.274457 1.408873 1.365974 1.305872
Pattern_8 1.094143 1.159546 1.074122 1.200546 1.181592 1.220399
Pattern_8 1.335423 1.244895 1.379270 1.308905 1.249953 1.256975
Pattern_8 1.198846 1.242690 1.178184 1.080012 0.917596 0.942433
Pattern_8 0.804529 0.760698 0.670956 0.585668 0.616824 0.532410
Pattern_8 0.514014 0.559034 0.580908 0.711045 0.782712 0.792327
Pattern_8 0.986563 1.093361 1.206974 1.279186 1.418052 1.420431
Pattern_8 1.422267 1.625421 1.562085 1.538405 1.552208 1.507198
Pattern_8 1.517847 1.417193 1.240658 1.268697 1.211437 1.184440
Pattern_8 1.096838 1.263162 1.197411 1.149094 1.218211 1.297383
Pattern_8 1.307501 1.401253 1.438652 1.341585 1.409124 1.454731
Pattern_8 1.303884 1.314196 1.202422 1.029561 1.021205 0.943665
Pattern_8 0.785644 0.741194 0.620662 0.572237 0.534170 0.492729
Pattern_8 0.487525 0.547294 0.644107 0.729984 0.793072 0.950805
Pattern_8 1.036442 1.082576 1.225132 1.286774 1.252073 1.279916
Pattern_8 1.502147 1.529537 1.612216 1.549043 1.518957 1.478253
Pattern_8 1.529459 1.474651 1.437099 1.414468 1.377456 1.268403
Pattern_8 1.175529 1.319646 1.282244 1.269338 1.283129 1.231575
Pattern_8 1.169129 1.346213 1.258827 1.280495 1.351120 1.257022
Pattern_8 1.364638 1.186543 1.219500 1.096898 1.015232 0.937599
Pattern_8 0.784681 0.756674 0.713231 0.581337 0.543623 0.546112
Pattern_8 0.531305 0.561967 0.628316 0.697236 0.862842 0.884573
Pattern_8 0.996415 1.204665 1.194585 1.366007 1.291532 1.367969
Pattern_8 1.494894 1.379912 1.641391 1.496233 1.380227 1.557605
Pattern_8 1.407012 1.434122 1.379577 1.255466 1.319321 1.204559
Pattern_8 1.142715 1.238575 1.274008 1.165534 1.230198 1.263724
Pattern_8 1.443978 1.269958 1.227491 1.413351 1.337297 1.353054
Pattern_8 1.242369 1.335303 1.304630 1.139396 1.048337 0.935040

Pattern_9 0.737487 0.720585 0.593080 0.560490 0.504404 0.472759
Pattern_9 0.452521 0.410821 0.449685 0.455624 0.503479 0.551891
Pattern_9 0.627514 0.659808 0.758231 0.910353 0.963899 1.201734
Pattern_9 1.287319 1.197082 1.380223 1.330313 1.399164 1.465219
Pattern_9 1.371556 1.348959 1.327362 1.359812 1.217051 1.171043
Pattern_9 1.214389 1.245147 1.201114 1.206409 1.270367 1.245470
Pattern_9 1.011189 1.375605 1.234880 1.327431 1.330137 1.253442
Pattern_9 1.387609 1.152176 1.133742 0.951148 1.009601 0.815831
Pattern_9 0.709021 0.582447 0.515349 0.429701 0.426939 0.400819
Pattern_9 0.435700 0.402460 0.468643 0.534026 0.685000 0.766703
Pattern_9 0.920036 1.052800 1.297056 1.347113 1.492960 1.619637
Pattern_9 1.794088 1.804532 1.636758 1.809661 1.649639 1.747871
Pattern_9 1.560423 1.420148 1.297468 1.368154 1.282013 1.143715
Pattern_9 1.143748 1.130701 1.134079 1.174215 1.206808 1.119317
Pattern_9 1.278575 1.339191 1.344146 1.496065 1.456715 1.548181
Pattern_9 1.339276 1.292815 1.220163 1.096464 1.040974 0.948973
Pattern_9 0.879085 0.703339 0.574173 0.471887 0.407498 0.414804
Pattern_9 0.411826 0.442304 0.466610 0.578987 0.669212 0.767901
Pattern_9 0.964316 1.076941 1.400501 1.391569 1.426605 1.502445
Pattern_9 1.722786 1.675605 1.631250 1.706552 1.664204 1.499544
Pattern_9 1.613540 1.405047 1.411136 1.403612 1.180001 1.176580
Pattern_9 1.143525 1.127213 1.243248 1.289193 1.268029 1.319589
Pattern_9 1.382233 1.472623 1.361043 1.434497 1.386226 1.583417
Pattern_9 1.433405 1.275277 1.215275 1.195865 1.082686 1.046449
Pattern_9 0.773648 0.622598 0.540523 0.544904 0.435639 0.406163
Pattern_9 0.426572 0.421670 0.525412 0.639895 0.789845 0.929537
Pattern_9 0.963642 1.003364 1.337939 1.352640 1.338826 1.685342
Pattern_9 1.618101 1.692338 1.577503 1.724032 1.626678 1.695557
Pattern_9 1.594084 1.566287 1.384373 1.378852 1.433690 1.344514
Pattern_9 1.285111 1.192442 1.265985 1.213197 1.264819 1.340504
Pattern_9 1.378904 1.379335 1.469867 1.483065 1.495405 1.373367
Pattern_9 1.464534 1.263658 1.354822 1.152899 1.046222 0.994104
Pattern_9 0.855709 0.716609 0.628741 0.447354 0.395929 0.349082
Pattern_9 0.405850 0.415306 0.490145 0.587820 0.738481 0.835918
Pattern_9 0.983099 1.107549 1.312445 1.383800 1.551143 1.671029
Pattern_9 1.632357 1.547036 1.619676 1.646951 1.561431 1.514230
Pattern_9 1.487899 1.420994 1.290947 1.383487 1.320005 1.176471
Pattern_9 1.199725 1.238207 1.289255 1.272118 1.368657 1.303032
Pattern_9 1.310191 1.437581 1.369413 1.452557 1.477665 1.445005
Pattern_9 1.347708 1.356607 1.345879 1.272882 1.178005 0.997262

Pattern_10 0.817066 0.761373 0.662975 0.660617 0.631065 0.574105
Pattern_10 0.559089 0.525002 0.598548 0.542561 0.549972 0.612885
Pattern_10 0.674890 0.734885 0.870007 0.893754 1.039013 1.068117
Pattern_10 1.196010 1.151913 1.307727 1.345588 1.377438 1.390477
Pattern_10 1.276178 1.415449 1.307042 1.301960 1.272029 1.349029
Pattern_10 1.225138 1.113577 1.213051 1.179996 1.138799 1.202637
Pattern_10 1.104632 1.189867 1.252980 1.396510 1.326533 1.253060
Pattern_10 1.191321 1.137617 1.080260 1.075907 0.981565 0.813353
Pattern_10 0.793565 0.644063 0.633752 0.560185 0.517613 0.514934