; Filename: ../LeakDB/CCWI-WDSA2018/Dataset_Generator/networks/Hanoi_CMH.inp
; WNTR: 0.3.1
; Created: 2022-05-13 10:12:32
[TITLE]

[JUNCTIONS]
;ID                      Elevation       Demand Pattern                 
 2                                 30          247.22 Pattern_2                  ;
 3                                 30          236.11 Pattern_3                  ;
 4                                 30           36.11 Pattern_4                  ;
 5                                 30          201.39 Pattern_5                  ;
 6                                 30          279.17 Pattern_6                  ;
 7                                 30             375 Pattern_7                  ;
 8                                 30          152.78 Pattern_8                  ;
 9                                 30          145.83 Pattern_9                  ;
 10                                30          145.83 Pattern_10                 ;
 11                                30          138.89 Pattern_11                 ;
 12                                30          155.56 Pattern_12                 ;
 13                                30          261.11 Pattern_13                 ;
 14                                30          170.83 Pattern_14                 ;
 15                                30           77.78 Pattern_15                 ;
 16                                30           86.11 Pattern_16                 ;
 17                                30          240.28 Pattern_17                 ;
 18                                30          373.61 Pattern_18                 ;
 19                                30           16.67 Pattern_19                 ;
 20                                30          354.17 Pattern_20                 ;
 21                                30          258.33 Pattern_21                 ;
 22                                30          134.72 Pattern_22                 ;
 23                                30          290.28 Pattern_23                 ;
 24                                30          227.78 Pattern_24                 ;
 25                                30           47.22 Pattern_25                 ;
 26                                30             250 Pattern_26                 ;
 27                                30          102.78 Pattern_27                 ;
 28                                30           80.56 Pattern_28                 ;
 29                                30             100 Pattern_29                 ;
 30                                30             100 Pattern_30                 ;
 31                                30           29.17 Pattern_31                 ;
 32                                30          223.61 Pattern_32                 ;

[RESERVOIRS]
;ID                                   Head                  Pattern
 1                                100                            ;

[TANKS]
;ID                              Elevation           Init Level            Min Level            Max Level             Diameter           Min Volume Volume Curve         Overflow            

[PIPES]
;ID                   Node1                Node2                              Length             Diameter            Roughness           Minor Loss               Status
 1                    1                    2                                100            1016             130               0                 Open   ;
 2                    2                    3                               1350            1016             130               0                 Open   ;
 3                    3                    4                                900            1016             130               0                 Open   ;
 4                    4                    5                               1150            1016             130               0                 Open   ;
 5                    5                    6                               1450            1016             130               0                 Open   ;
 6                    6                    7                                450            1016             130               0                 Open   ;
 7                    7                    8                                850            1016             130               0                 Open   ;
 8                    8                    9                                850            1016             130               0                 Open   ;
 9                    9                    10                               800            1016             130               0                 Open   ;
 10                   10                   11                               950             762             130               0                 Open   ;
 11                   11                   12                              1200             762             130               0                 Open   ;
 12                   12                   13                              3500           609.6             130               0                 Open   ;
 13                   10                   14                               800           406.4             130               0                 Open   ;
 14                   14                   15                               500           406.4             130               0                 Open   ;
 15                   15                   16                               550           304.8             130               0                 Open   ;
 16                   17                   16                              2730           406.4             130               0                 Open   ;
 17                   17                   18                              1750             508             130               0                 Open   ;
 18                   18                   19                               800           609.6             130               0                 Open   ;
 19                   19                   3                                400           609.6             130               0                 Open   ;
 20                   3                    20                              2200            1016             130               0                 Open   ;
 21                   20                   21                              1500             508             130               0                 Open   ;
 22                   21                   22                               500           304.8             130               0                 Open   ;
 23                   20                   23                              2650            1016             130               0                 Open   ;
 24                   23                   24                              1230             762             130               0                 Open   ;
 25                   24                   25                              1300             762             130               0                 Open   ;
 26                   26                   25                               850             508             130               0                 Open   ;
 27                   27                   26                               300           304.8             130               0                 Open   ;
 28                   16                   27                               750           304.8             130               0                 Open   ;
 29                   23                   28                              1500           406.4             130               0                 Open   ;
 30                   28                   29                              2000           406.4             130               0                 Open   ;
 31                   29                   30                              1600           304.8             130               0                 Open   ;
 32                   30                   31                               150           304.8             130               0                 Open   ;
 33                   32                   31                               860           406.4             130               0                 Open   ;
 34                   25                   32                               950             508             130               0                 Open   ;

[PUMPS]
;ID                   Node1                Node2                Properties          

[VALVES]
;ID                   Node1                Node2                            Diameter Type              Setting           Minor Loss

[TAGS]
;type      name       tag       

[DEMANDS]
;ID        Demand     Pattern   

[STATUS]
;ID        Setting   
[PATTERNS]
;ID        Multipliers

Pattern_2 0.845509 0.727001 0.736272 0.636208 0.654958 0.587949
Pattern_2 0.539077 0.556603 0.590605 0.615413 0.632398 0.699018
Pattern_2 0.736431 0.733244 0.783264 0.875270 1.018111 1.073655
Pattern_2 1.245981 1.217819 1.303655 1.353408 1.246056 1.403102
Pattern_2 1.220508 1.322995 1.217513 1.207355 1.281218 1.196275
Pattern_2 1.166247 1.070656 1.103319 1.135568 1.080990 1.294381
Pattern_2 1.170572 1.225600 1.309986 1.227165 1.202723 1.156809
Pattern_2 1.230955 1.077267 1.134864 1.019041 0.906698 0.791916
Pattern_2 0.751150 0.769322 0.642215 0.591852 0.556147 0.536147
Pattern_2 0.538489 0.544293 0.557874 0.635273 0.722331 0.696502
Pattern_2 0.915784 1.044927 1.090842 1.295859 1.407206 1.401384
Pattern_2 1.566718 1.589451 1.723285 1.654613 1.632489 1.494779
Pattern_2 1.324517 1.309279 1.323564 1.399347 1.122754 1.078470
Pattern_2 1.176088 1.077246 1.132958 1.152612 1.119360 1.227928
Pattern_2 1.111340 1.326121 1.213812 1.206857 1.290293 1.368030
Pattern_2 1.269335 1.243335 1.129756 1.070614 1.071173 0.940702
Pattern_2 0.810289 0.731219 0.666110 0.593461 0.559523 0.464449
Pattern_2 0.524881 0.588142 0.589727 0.697869 0.765290 0.807834
Pattern_2 0.873057 0.946608 1.142148 1.290168 1.206832 1.376576
Pattern_2 1.488573 1.386443 1.414991 1.420395 1.514927 1.502252
Pattern_2 1.465112 1.334159 1.360729 1.265621 1.217422 1.246201
Pattern_2 1.014254 1.258034 1.172836 1.138640 1.272071 1.158526
Pattern_2 1.205464 1.284093 1.342660 1.377217 1.488331 1.302487
Pattern_2 1.326213 1.271018 1.243271 1.069801 0.975210 0.892170
Pattern_2 0.877423 0.741554 0.638473 0.569728 0.599047 0.546208
Pattern_2 0.571369 0.540847 0.573338 0.731613 0.821508 0.917263
Pattern_2 1.009536 1.173507 1.182400 1.220891 1.256405 1.467279
Pattern_2 1.455364 1.408928 1.458274 1.518709 1.537781 1.428256
Pattern_2 1.416745 1.453325 1.256093 1.255687 1.211401 1.290749
Pattern_2 1.218063 1.119685 1.285384 1.159584 1.210029 1.226329
Pattern_2 1.313624 1.324752 1.402419 1.307007 1.337889 1.268112
Pattern_2 1.279505 1.181178 1.224093 1.113016 1.082236 0.867603
Pattern_2 0.806498 0.730298 0.645894 0.630878 0.532669 0.570157
Pattern_2 0.557788 0.550952 0.635114 0.697178 0.822924 0.864723
Pattern_2 1.026328 1.164576 1.296758 1.315968 1.402035 1.420571
Pattern_2 1.508081 1.427887 1.419332 1.597036 1.474825 1.559513
Pattern_2 1.434864 1.326654 1.364647 1.306993 1.117238 1.189489
Pattern_2 1.188767 1.169660 1.185039 1.240933 1.159946 1.272673
Pattern_2 1.375937 1.268063 1.231924 1.293393 1.339333 1.422990
Pattern_2 1.222136 1.246914 1.347800 1.159651 1.047531 0.940092
Pattern_2 0.805868 0.762990 0.703102 0.626420 0.595008 0.585626
Pattern_2 0.590192 0.631381 0.658101 0.803433 0.926768 0.924215
Pattern_2 1.059064 1.254201 1.430703 1.441124 1.614051 1.661662
Pattern_2 1.520709 1.545772 1.611851 1.497959 1.503956 1.614940
Pattern_2 1.527807 1.352844 1.356276 1.374132 1.268711 1.224991
Pattern_2 1.330913 1.396130 1.292069 1.312037 1.409957 1.340997
Pattern_2 1.336138 1.325897 1.361873 1.247110 1.223093 1.241717
Pattern_2 1.334340 1.195642 1.200349 1.083131 1.048011 0.901234
Pattern_2 0.843311 0.834683 0.765775 0.678677 0.699109 0.609729
Pattern_2 0.597902 0.577450 0.603305 0.648963 0.697499 0.741147
Pattern_2 0.762187 0.940601 0.995716 1.043173 1.214278 1.297819
Pattern_2 1.334527 1.307283 1.427259 1.496333 1.467331 1.339890
Pattern_2 1.338816 1.365467 1.314285 1.311109 1.384997 1.393315
Pattern_2 1.204303 1.359677 1.244959 1.280052 1.296064 1.190194
Pattern_2 1.268857 1.335794 1.169467 1.327996 1.289489 1.226020
Pattern_2 1.100982 1.162741 0.898853 0.984242 0.910993 0.907060
Pattern_2 0.815761 0.807685 0.742379 0.633741 0.689607 0.594978
Pattern_2 0.612234 0.565610 0.617231 0.563615 0.674731 0.628504
Pattern_2 0.784237 0.759558 0.847889 1.028544 1.046175 1.100530
Pattern_2 1.172490 1.164011 1.277355 1.381899 1.272353 1.273204
Pattern_2 1.431505 1.288568 1.371950 1.276430 1.093456 1.213771
Pattern_2 1.244886 1.112415 1.149415 1.250894 1.297499 1.069444
Pattern_2 1.234180 1.279615 1.144436 1.265399 1.253839 1.181177
Pattern_2 1.102477 1.083530 1.062841 1.034284 1.008639 0.922060
Pattern_2 0.764283 0.739137 0.613148 0.560671 0.537068 0.572881
Pattern_2 0.538153 0.552336 0.614670 0.664150 0.704613 0.899874
Pattern_2 0.896575 1.239033 1.139719 1.287535 1.371576 1.429072
Pattern_2 1.530262 1.586264 1.701336 1.613725 1.670665 1.728233
Pattern_2 1.437715 1.451727 1.350897 1.339005 1.129161 1.203984
Pattern_2 1.298625 1.166550 1.062114 1.201909 1.192691 1.147932
Pattern_2 1.161530 1.280946 1.221544 1.336394 1.383164 1.408562
Pattern_2 1.321013 1.205217 1.296347 1.106735 1.099452 0.889655
Pattern_2 0.891941 0.821324 0.723697 0.571129 0.529609 0.553794
Pattern_2 0.609189 0.530295 0.612957 0.685457 0.735048 0.880737
Pattern_2 0.955632 1.018576 1.165986 1.222968 1.347272 1.413196
Pattern_2 1.463337 1.556541 1.525045 1.592994 1.351772 1.564728
Pattern_2 1.427543 1.279913 1.273860 1.332309 1.137564 1.234094
Pattern_2 1.236630 1.174413 1.060399 1.278586 1.268684 1.322725
Pattern_2 1.254846 1.328359 1.266542 1.421327 1.362585 1.368417
Pattern_2 1.250134 1.331681 1.152282 1.180000 1.037698 0.953827
Pattern_2 0.795184 0.710964 0.622631 0.591513 0.583100 0.542439
Pattern_2 0.518242 0.557408 0.631739 0.665936 0.768087 0.938217
Pattern_2 0.991195 1.060069 1.096084 1.421898 1.303986 1.518465
Pattern_2 1.493679 1.479712 1.584618 1.517612 1.664017 1.372989
Pattern_2 1.439846 1.527831 1.451997 1.370214 1.313826 1.241875
Pattern_2 1.090203 1.331040 1.128123 1.276753 1.166148 1.249575
Pattern_2 1.315194 1.389257 1.247250 1.431885 1.291133 1.324203
Pattern_2 1.335023 1.142059 1.203278 1.030287 1.032822 0.987782
Pattern_2 0.900586 0.720707 0.711661 0.632274 0.563598 0.558508
Pattern_2 0.535626 0.555200 0.611394 0.721183 0.884085 0.892070
Pattern_2 1.063296 1.134993 1.180081 1.296327 1.411542 1.446253
Pattern_2 1.408035 1.411102 1.602886 1.473101 1.427013 1.273384
Pattern_2 1.361021 1.460895 1.340246 1.150360 1.200203 1.174877
Pattern_2 1.227645 1.196621 1.329105 1.214761 1.131183 1.249099
Pattern_2 1.323678 1.408850 1.364643 1.503945 1.484605 1.264485
Pattern_2 1.264630 1.378472 1.294105 1.041743 0.998020 0.909144
Pattern_2 0.884556 0.845385 0.698215 0.658941 0.598243 0.538425
Pattern_2 0.636263 0.604227 0.647180 0.756041 0.799591 0.974182
Pattern_2 1.043517 1.167566 1.387542 1.490622 1.387946 1.589420
Pattern_2 1.536511 1.818483 1.640621 1.632687 1.397838 1.644554
Pattern_2 1.377694 1.502006 1.333429 1.433798 1.336874 1.253351
Pattern_2 1.284436 1.239270 1.303782 1.192450 1.290314 1.362748
Pattern_2 1.567873 1.441586 1.375362 1.182375 1.325852 1.114891
Pattern_2 1.296790 1.288441 1.215021 1.117006 1.057574 1.052983
Pattern_2 0.924724 0.874023 0.822481 0.713081 0.613569 0.647126
Pattern_2 0.632425 0.609532 0.638087 0.615809 0.737910 0.802715
Pattern_2 0.902994 0.994614 1.007377 1.145097 1.248820 1.158081
Pattern_2 1.260935 1.441804 1.400137 1.482347 1.470340 1.411583
Pattern_2 1.437583 1.417372 1.403211 1.383754 1.378357 1.262890
Pattern_2 1.229096 1.420262 1.319215 1.287889 1.239452 1.295527
Pattern_2 1.215122 1.358349 1.274838 1.212516 1.296758 1.172870
Pattern_2 1.106370 1.130509 1.090028 0.959942 0.890425 0.886047
Pattern_2 0.849948

Pattern_3 0.731559 0.810828 0.760330 0.680297 0.565071 0.561033
Pattern_3 0.572956 0.534809 0.619065 0.574827 0.601614 0.662185
Pattern_3 0.742009 0.813320 0.916342 0.937597 1.116830 1.075858
Pattern_3 1.111425 1.294382 1.280581 1.191323 1.379403 1.255630
Pattern_3 1.291421 1.216377 1.337758 1.114961 1.228609 1.182702
Pattern_3 1.159092 1.120446 1.132863 1.053830 1.081636 1.120949
Pattern_3 1.172299 1.233603 1.043752 1.312233 1.256406 1.234611
Pattern_3 1.178909 1.231717 1.116297 0.988485 0.989537 0.890801
Pattern_3 0.765451 0.822172 0.596721 0.594797 0.545478 0.537416
Pattern_3 0.476381 0.564249 0.601164 0.727588 0.743014 0.925435
Pattern_3 0.854157 1.104431 1.291307 1.335552 1.426106 1.464376
Pattern_3 1.556037 1.448929 1.410202 1.585062 1.583104 1.528431
Pattern_3 1.509329 1.293714 1.265533 1.306039 1.259243 1.178507
Pattern_3 1.156861 1.025537 1.093852 1.131030 1.121239 1.061056
Pattern_3 1.212745 1.148664 1.350678 1.302475 1.278358 1.318767
Pattern_3 1.341276 1.216415 1.175134 1.166260 0.931112 0.941375
Pattern_3 0.782079 0.782891 0.681882 0.626997 0.545628 0.614342
Pattern_3 0.533927 0.595465 0.591916 0.726653 0.747035 0.884253
Pattern_3 0.881958 1.106243 1.187738 1.232808 1.358106 1.340837
Pattern_3 1.400068 1.537908 1.351189 1.526741 1.472351 1.582281
Pattern_3 1.399695 1.221407 1.371199 1.221583 1.389956 1.147111
Pattern_3 1.128382 1.112713 1.079495 1.105666 1.203685 1.309769
Pattern_3 1.238856 1.365647 1.469729 1.345447 1.306206 1.285495
Pattern_3 1.339809 1.369328 1.219406 1.149262 1.060557 0.979133
Pattern_3 0.823481 0.682604 0.671538 0.525559 0.611872 0.549787
Pattern_3 0.516844 0.603903 0.658047 0.705317 0.789668 0.901363
Pattern_3 0.933855 1.075472 1.117230 1.303669 1.548160 1.370298
Pattern_3 1.526748 1.422619 1.433010 1.385368 1.362007 1.372225
Pattern_3 1.341740 1.327721 1.414345 1.193892 1.216631 1.256269
Pattern_3 1.208676 1.180719 1.214268 1.222843 1.211451 1.303404
Pattern_3 1.243975 1.283899 1.268879 1.237813 1.332943 1.450358
Pattern_3 1.331127 1.354727 1.284355 1.139922 0.962095 0.972053
Pattern_3 0.967557 0.784264 0.710210 0.672309 0.549631 0.559350
Pattern_3 0.528603 0.628480 0.667442 0.717466 0.815165 0.917533
Pattern_3 1.071592 1.131813 1.204067 1.326753 1.370280 1.507830
Pattern_3 1.546151 1.590714 1.516504 1.289277 1.434630 1.458633
Pattern_3 1.317169 1.328433 1.230174 1.239614 1.170735 1.139493
Pattern_3 1.227447 1.211925 1.167154 1.268344 1.303039 1.326894
Pattern_3 1.157807 1.251130 1.322942 1.373973 1.307046 1.363942
Pattern_3 1.367734 1.286977 1.216003 1.060750 1.040592 0.923670
Pattern_3 0.854727 0.732181 0.684383 0.714460 0.583884 0.538226
Pattern_3 0.606786 0.588261 0.727484 0.793814 0.872044 0.992418
Pattern_3 1.166612 1.267525 1.366100 1.356976 1.529513 1.567330
Pattern_3 1.694712 1.836695 1.564831 1.517391 1.594675 1.531686
Pattern_3 1.557012 1.568170 1.335539 1.180342 1.292482 1.223229
Pattern_3 1.140237 1.262257 1.206525 1.231027 1.234423 1.233485
Pattern_3 1.287622 1.329677 1.299933 1.384777 1.493306 1.259478
Pattern_3 1.303996 1.217019 1.156950 1.083341 1.014867 0.895990
Pattern_3 0.971185 0.887498 0.804130 0.729157 0.638955 0.681804
Pattern_3 0.572084 0.690066 0.629924 0.709801 0.618858 0.798519
Pattern_3 0.794619 0.962633 1.105952 1.117382 1.177944 1.311707
Pattern_3 1.484353 1.436846 1.371726 1.531641 1.298746 1.364776
Pattern_3 1.415408 1.455214 1.400737 1.181276 1.297987 1.362867
Pattern_3 1.290262 1.293180 1.325450 1.095726 1.282120 1.370732
Pattern_3 1.179476 1.215269 1.308118 1.242986 1.318091 1.204303
Pattern_3 1.283117 1.143980 0.989167 1.028605 0.921214 0.953044
Pattern_3 0.783898 0.817617 0.732876 0.653545 0.680316 0.611852
Pattern_3 0.622216 0.625766 0.625895 0.578967 0.682095 0.662636
Pattern_3 0.718884 0.804047 0.784817 0.933983 1.059461 1.037073
Pattern_3 1.278016 1.208751 1.249578 1.285333 1.417199 1.314866
Pattern_3 1.239150 1.305296 1.324301 1.299976 1.257904 1.169298
Pattern_3 1.137428 1.176474 1.117869 1.158732 1.200214 1.160474
Pattern_3 1.321787 1.251180 1.248343 1.377210 1.285122 1.324713
Pattern_3 1.272019 1.304198 1.105534 1.044432 1.070888 0.967465
Pattern_3 0.816404 0.724534 0.630891 0.588375 0.544684 0.511975
Pattern_3 0.538906 0.567432 0.637397 0.651419 0.695906 0.827941
Pattern_3 0.984813 1.129650 1.199966 1.378407 1.291960 1.492339
Pattern_3 1.539349 1.574850 1.641765 1.535976 1.571217 1.673566
Pattern_3 1.559044 1.391771 1.288695 1.390627 1.277079 1.265521
Pattern_3 1.127353 1.193629 1.165900 1.115220 1.217625 1.125573
Pattern_3 1.332379 1.175228 1.428598 1.422199 1.331942 1.436067
Pattern_3 1.317423 1.285008 1.267266 1.251815 1.123087 0.965153
Pattern_3 0.921062 0.798068 0.690323 0.683339 0.583587 0.617469
Pattern_3 0.604961 0.578961 0.684905 0.725294 0.799392 0.879872
Pattern_3 0.958447 1.087924 1.291247 1.282235 1.364975 1.407392
Pattern_3 1.560943 1.540600 1.554438 1.495397 1.535750 1.370107
Pattern_3 1.499075 1.411011 1.371617 1.140125 1.193684 1.264163
Pattern_3 1.174940 1.045509 1.055203 1.229739 1.231942 1.226189
Pattern_3 1.390046 1.309555 1.373784 1.390611 1.321201 1.346354
Pattern_3 1.416535 1.288533 1.326563 1.110523 1.035685 1.028147
Pattern_3 0.934019 0.769732 0.723062 0.592589 0.599136 0.553014
Pattern_3 0.564886 0.610959 0.657617 0.712119 0.871334 0.920354
Pattern_3 0.995350 1.064754 1.327736 1.383504 1.290087 1.556164
Pattern_3 1.448694 1.550892 1.586139 1.444720 1.597895 1.439838
Pattern_3 1.410770 1.293301 1.266152 1.311740 1.200795 1.238334
Pattern_3 1.171457 1.213789 1.303618 1.200570 1.188363 1.132500
Pattern_3 1.457631 1.251693 1.327666 1.350710 1.329556 1.284439
Pattern_3 1.293629 1.232383 1.041203 1.136143 1.049926 0.944619
Pattern_3 0.831044 0.736889 0.727097 0.605218 0.583718 0.572939
Pattern_3 0.574045 0.611877 0.675036 0.730040 0.868429 0.922449
Pattern_3 1.055990 1.176932 1.350140 1.351825 1.445845 1.446859
Pattern_3 1.557222 1.743110 1.493389 1.596743 1.434239 1.475463
Pattern_3 1.322735 1.301986 1.355805 1.296179 1.226444 1.218365
Pattern_3 1.209874 1.182759 1.252684 1.184885 1.295310 1.295802
Pattern_3 1.232589 1.353812 1.384441 1.393136 1.512997 1.425697
Pattern_3 1.205968 1.216765 1.173229 1.090513 1.096852 0.997317
Pattern_3 0.912355 0.825850 0.736746 0.650859 0.597066 0.600121
Pattern_3 0.639006 0.575656 0.687473 0.797266 0.900211 1.006521
Pattern_3 1.054200 1.384860 1.511532 1.494251 1.534828 1.709548
Pattern_3 1.763046 1.856631 1.574479 1.744761 1.560760 1.517903
Pattern_3 1.461734 1.601290 1.516948 1.395043 1.263773 1.328056
Pattern_3 1.262316 1.126855 1.282588 1.205073 1.204683 1.240805
Pattern_3 1.367215 1.314803 1.321043 1.382670 1.391579 1.429201
Pattern_3 1.257550 1.165371 1.211141 1.221590 1.161463 0.993455
Pattern_3 0.981393 0.873009 0.772884 0.838581 0.677251 0.662381
Pattern_3 0.615263 0.637163 0.662152 0.694670 0.777246 0.816980
Pattern_3 0.832320 0.860750 1.101622 1.171359 1.288253 1.314277
Pattern_3 1.402690 1.534656 1.456167 1.485321 1.378011 1.328471
Pattern_3 1.452321 1.447234 1.403641 1.360413 1.281694 1.321634
Pattern_3 1.299658 1.215741 1.204348 1.262938 1.283796 1.239487
Pattern_3 1.328056 1.202557 1.337783 1.299463 1.235427 1.200058
Pattern_3 1.121030 1.006316 0.981443 1.061139 0.990373 0.878130
Pattern_3 0.907111

Pattern_4 0.704434 0.724335 0.646180 0.608024 0.522311 0.543601
Pattern_4 0.529845 0.531911 0.535320 0.565475 0.582375 0.672653
Pattern_4 0.656059 0.684073 0.780867 0.932549 0.987804 1.136342
Pattern_4 1.142622 1.212008 1.285178 1.214232 1.450603 1.356416
Pattern_4 1.282834 1.433063 1.346284 1.401177 1.257034 1.228287
Pattern_4 1.136059 1.281533 1.235375 1.201469 1.151189 1.225351
Pattern_4 1.325327 1.225390 1.275254 1.285333 1.284452 1.285239
Pattern_4 1.241187 1.229544 1.157948 0.879363 0.924799 0.811677
Pattern_4 0.728951 0.676784 0.620034 0.508834 0.515972 0.430819
Pattern_4 0.492173 0.488738 0.540831 0.651936 0.785851 0.861667
Pattern_4 1.000360 1.085709 1.156960 1.440114 1.324935 1.577589
Pattern_4 1.590918 1.532891 1.687863 1.503292 1.513901 1.571597
Pattern_4 1.662729 1.373936 1.385537 1.311623 1.167029 1.251112
Pattern_4 1.187888 1.157116 1.184626 1.158075 1.174551 1.131446
Pattern_4 1.243494 1.237665 1.273910 1.281834 1.498266 1.290861
Pattern_4 1.320890 1.274751 1.204265 1.103688 0.996550 0.918136
Pattern_4 0.836568 0.687781 0.597965 0.510483 0.462057 0.456501
Pattern_4 0.456129 0.444701 0.562045 0.614519 0.789305 0.785510
Pattern_4 1.002336 1.032812 1.098639 1.336121 1.364513 1.510893
Pattern_4 1.640389 1.568748 1.583116 1.559160 1.607882 1.581999
Pattern_4 1.481689 1.356656 1.323773 1.311828 1.211998 1.299966
Pattern_4 1.105725 1.146337 1.279231 1.144852 1.207700 1.236407
Pattern_4 1.315063 1.415893 1.463283 1.250309 1.462148 1.379567
Pattern_4 1.435916 1.292625 1.168904 1.118656 1.040228 0.863092
Pattern_4 0.767161 0.696783 0.587943 0.499525 0.456642 0.502158
Pattern_4 0.496259 0.558353 0.573730 0.651205 0.767593 0.966687
Pattern_4 0.947969 1.159844 1.158196 1.248449 1.321979 1.582822
Pattern_4 1.577360 1.574493 1.546683 1.611530 1.592124 1.566416
Pattern_4 1.697522 1.393266 1.431050 1.270315 1.289080 1.415537
Pattern_4 1.332394 1.217126 1.357013 1.260155 1.326889 1.174365
Pattern_4 1.327929 1.333801 1.398759 1.234541 1.296152 1.470723
Pattern_4 1.351068 1.284089 1.111324 1.111988 1.056271 0.909479
Pattern_4 0.833932 0.703849 0.606098 0.526786 0.481883 0.462386
Pattern_4 0.454988 0.518480 0.544342 0.623805 0.710078 0.878419
Pattern_4 1.007349 1.213743 1.247491 1.340893 1.213536 1.469712
Pattern_4 1.575971 1.423892 1.522346 1.544566 1.359994 1.504569
Pattern_4 1.428700 1.355319 1.295795 1.144282 1.346772 1.153698
Pattern_4 1.269500 1.277628 1.051782 1.255559 1.310184 1.278852
Pattern_4 1.332399 1.261498 1.378890 1.263182 1.232826 1.447538
Pattern_4 1.336724 1.289424 1.253500 1.122039 1.018228 0.974804
Pattern_4 0.790290 0.771945 0.625964 0.550787 0.469554 0.489876
Pattern_4 0.479652 0.546056 0.643381 0.754587 0.821097 0.914845
Pattern_4 1.129968 1.435646 1.404359 1.640113 1.744282 1.660332
Pattern_4 1.851326 1.786057 1.806849 1.795988 1.743361 1.642379
Pattern_4 1.707821 1.603522 1.478944 1.581038 1.238398 1.425421
Pattern_4 1.340610 1.222624 1.247875 1.263556 1.401006 1.246985
Pattern_4 1.357692 1.206989 1.309907 1.356586 1.307002 1.330304
Pattern_4 1.308003 1.223803 1.183557 1.104891 0.965148 0.923275
Pattern_4 0.810675 0.706874 0.656496 0.611021 0.568668 0.569988
Pattern_4 0.522184 0.528001 0.490417 0.595064 0.626265 0.753953
Pattern_4 0.828826 0.883015 0.984025 1.136641 1.251881 1.381546
Pattern_4 1.339134 1.355474 1.541113 1.551245 1.555298 1.551355
Pattern_4 1.489403 1.429940 1.410783 1.437008 1.424905 1.414049
Pattern_4 1.217231 1.285890 1.285398 1.348411 1.300438 1.273533
Pattern_4 1.358644 1.203431 1.277164 1.266361 1.288127 1.115632
Pattern_4 1.192872 1.077864 0.921768 0.958330 0.844546 0.870406
Pattern_4 0.748028 0.685957 0.686054 0.601781 0.609921 0.527618
Pattern_4 0.536889 0.516537 0.485883 0.513273 0.561469 0.584850
Pattern_4 0.706901 0.785296 0.842433 0.974060 0.970918 1.028402
Pattern_4 1.185828 1.185725 1.245042 1.366699 1.324803 1.420624
Pattern_4 1.458107 1.437353 1.236357 1.341633 1.194168 1.319149
Pattern_4 1.285036 1.274301 1.088707 1.256732 1.140693 1.257900
Pattern_4 1.283128 1.306479 1.317967 1.235072 1.336458 1.278588
Pattern_4 1.305916 1.118540 1.181215 1.037097 0.945248 0.868574
Pattern_4 0.742044 0.647939 0.598717 0.596119 0.529075 0.461555
Pattern_4 0.481903 0.511547 0.532829 0.620182 0.695999 0.890222
Pattern_4 0.908474 1.125023 1.155936 1.249185 1.443310 1.544149
Pattern_4 1.667772 1.877593 1.762596 1.702905 1.702111 1.698495
Pattern_4 1.579352 1.490991 1.451739 1.438625 1.248918 1.200092
Pattern_4 1.217197 1.205372 1.135290 1.236877 1.150548 1.275988
Pattern_4 1.196465 1.267094 1.388565 1.357429 1.337456 1.482568
Pattern_4 1.258559 1.312139 1.091151 1.082397 1.028963 0.944367
Pattern_4 0.765791 0.722733 0.614828 0.595131 0.497048 0.464693
Pattern_4 0.493787 0.472130 0.548839 0.569338 0.702922 0.838807
Pattern_4 0.964375 1.063379 1.188164 1.233934 1.376386 1.609920
Pattern_4 1.509494 1.677356 1.688184 1.665335 1.670045 1.448262
Pattern_4 1.426754 1.331164 1.570524 1.435814 1.269788 1.205772
Pattern_4 1.252993 1.256818 1.349054 1.134721 1.279069 1.294281
Pattern_4 1.409153 1.410767 1.386775 1.435362 1.436194 1.648225
Pattern_4 1.266879 1.306930 1.214136 1.179419 1.002816 0.878859
Pattern_4 0.871081 0.698792 0.606846 0.527711 0.495340 0.466685
Pattern_4 0.521962 0.501653 0.574856 0.694615 0.701021 0.855602
Pattern_4 1.055980 1.092221 1.252887 1.299676 1.406464 1.429942
Pattern_4 1.506888 1.567550 1.639774 1.724018 1.602968 1.555949
Pattern_4 1.530201 1.428838 1.487522 1.505532 1.298700 1.330016
Pattern_4 1.324881 1.286356 1.326876 1.177587 1.323136 1.178131
Pattern_4 1.423573 1.445554 1.443147 1.428615 1.366929 1.330651
Pattern_4 1.381394 1.314120 1.317398 1.149675 1.041458 0.849532
Pattern_4 0.805099 0.770980 0.606658 0.541420 0.487678 0.490225
Pattern_4 0.485980 0.543215 0.577711 0.711565 0.757460 0.954478
Pattern_4 1.119242 1.129965 1.235620 1.412046 1.455793 1.520665
Pattern_4 1.675618 1.666364 1.705665 1.603247 1.632920 1.461695
Pattern_4 1.470528 1.461050 1.466345 1.271147 1.316429 1.335988
Pattern_4 1.282866 1.286390 1.265523 1.232159 1.245223 1.317206
Pattern_4 1.346567 1.301031 1.354911 1.329496 1.368402 1.353130
Pattern_4 1.385878 1.304949 1.234905 1.087789 1.088175 1.048586
Pattern_4 0.813265 0.764864 0.669834 0.553114 0.475412 0.493293
Pattern_4 0.512529 0.571505 0.606665 0.737922 0.801187 1.001156
Pattern_4 1.192879 1.360600 1.512609 1.542649 1.719522 1.830776
Pattern_4 1.655608 1.840285 1.811353 1.942942 1.821035 1.651420
Pattern_4 1.661755 1.393762 1.419028 1.399833 1.335738 1.346456
Pattern_4 1.266486 1.307102 1.375153 1.358909 1.392422 1.478555
Pattern_4 1.346411 1.187032 1.394276 1.381998 1.372704 1.380585
Pattern_4 1.373915 1.243147 1.165459 1.028955 1.016982 0.978818