; Filename: ../LeakDB/CCWI-WDSA2018/Dataset_Generator/networks/Hanoi_CMH.inp
; WNTR: 0.3.1
; Created: 2022-05-30 12:13:08
[TITLE]

[JUNCTIONS]
;ID                      Elevation       Demand Pattern                 
 2                                 30          247.22 Pattern_2                  ;
 3                                 30          236.11 Pattern_3                  ;
 4                                 30           36.11 Pattern_4                  ;
 5                                 30          201.39 Pattern_5                  ;
 6                                 30          279.17 Pattern_6                  ;
 7                                 30             375 Pattern_7                  ;
 8                                 30          152.78 Pattern_8                  ;
 9                                 30          145.83 Pattern_9                  ;
 10                                30          145.83 Pattern_10                 ;
 11                                30          138.89 Pattern_11                 ;
 12                                30          155.56 Pattern_12                 ;
 13                                30          261.11 Pattern_13                 ;
 14                                30          170.83 Pattern_14                 ;
 15                                30           77.78 Pattern_15                 ;
 16                                30           86.11 Pattern_16                 ;
 17                                30          240.28 Pattern_17                 ;
 18                                30          373.61 Pattern_18                 ;
 19                                30           16.67 Pattern_19                 ;
 20                                30          354.17 Pattern_20                 ;
 21                                30          258.33 Pattern_21                 ;
 22                                30          134.72 Pattern_22                 ;
 23                                30          290.28 Pattern_23                 ;
 24                                30          227.78 Pattern_24                 ;
 25                                30           47.22 Pattern_25                 ;
 26                                30             250 Pattern_26                 ;
 27                                30          102.78 Pattern_27                 ;
 28                                30           80.56 Pattern_28                 ;
 29                                30             100 Pattern_29                 ;
 30                                30             100 Pattern_30                 ;
 31                                30           29.17 Pattern_31                 ;
 32                                30          223.61 Pattern_32                 ;

[RESERVOIRS]
;ID                                   Head                  Pattern
 1                                100                            ;

[TANKS]
;ID                              Elevation           Init Level            Min Level            Max Level             Diameter           Min Volume Volume Curve         Overflow            

[PIPES]
;ID                   Node1                Node2                              Length             Diameter            Roughness           Minor Loss               Status
 1                    1                    2                                100            1016             130               0                 Open   ;
 2                    2                    3                               1350            1016             130               0                 Open   ;
 3                    3                    4                                900            1016             130               0                 Open   ;
 4                    4                    5                               1150            1016             130               0                 Open   ;
 5                    5                    6                               1450            1016             130               0                 Open   ;
 6                    6                    7                                450            1016             130               0                 Open   ;
 7                    7                    8                                850            1016             130               0                 Open   ;
 8                    8                    9                                850            1016             130               0                 Open   ;
 9                    9                    10                               800            1016             130               0                 Open   ;
 10                   10                   11                               950             762             130               0                 Open   ;
 11                   11                   12                              1200             762             130               0                 Open   ;
 12                   12                   13                              3500           609.6             130               0                 Open   ;
 13                   10                   14                               800           406.4             130               0                 Open   ;
 14                   14                   15                               500           406.4             130               0                 Open   ;
 15                   15                   16                               550           304.8             130               0                 Open   ;
 16                   17                   16                              2730           406.4             130               0                 Open   ;
 17                   17                   18                              1750             508             130               0                 Open   ;
 18                   18                   19                               800           609.6             130               0                 Open   ;
 19                   19                   3                                400           609.6             130               0                 Open   ;
 20                   3                    20                              2200            1016             130               0                 Open   ;
 21                   20                   21                              1500             508             130               0                 Open   ;
 22                   21                   22                               500           304.8             130               0                 Open   ;
 23                   20                   23                              2650            1016             130               0                 Open   ;
 24                   23                   24                              1230             762             130               0                 Open   ;
 25                   24                   25                              1300             762             130               0                 Open   ;
 26                   26                   25                               850             508             130               0                 Open   ;
 27                   27                   26                               300           304.8             130               0                 Open   ;
 28                   16                   27                               750           304.8             130               0                 Open   ;
 29                   23                   28                              1500           406.4             130               0                 Open   ;
 30                   28                   29                              2000           406.4             130               0                 Open   ;
 31                   29                   30                              1600           304.8             130               0                 Open   ;
 32                   30                   31                               150           304.8             130               0                 Open   ;
 33                   32                   31                               860           406.4             130               0                 Open   ;
 34                   25                   32                               950             508             130               0                 Open   ;

[PUMPS]
;ID                   Node1                Node2                Properties          

[VALVES]
;ID                   Node1                Node2                            Diameter Type              Setting           Minor Loss

[TAGS]
;type      name       tag       

[DEMANDS]
;ID        Demand     Pattern   

[STATUS]
;ID        Setting   
[PATTERNS]
;ID        Multipliers

Pattern_2 0.854130 0.772044 0.721234 0.693904 0.634755 0.635140
Pattern_2 0.548788 0.560136 0.583935 0.571678 0.599030 0.662118
Pattern_2 0.624598 0.740319 0.775469 0.864807 0.994280 0.968121
Pattern_2 1.189102 1.176922 1.176849 1.307276 1.270182 1.405851
Pattern_2 1.395164 1.234725 1.270192 1.297423 1.331700 1.200748
Pattern_2 1.195166 1.152074 1.276253 1.145361 1.279084 1.300786
Pattern_2 1.332146 1.173236 1.289908 1.385497 1.327204 1.246762
Pattern_2 1.257067 1.123435 1.244178 1.097877 1.006910 0.890442
Pattern_2 0.783188 0.761617 0.709147 0.641934 0.592314 0.551147
Pattern_2 0.562198 0.541660 0.577102 0.652681 0.735590 0.844228
Pattern_2 0.905509 1.133641 1.109459 1.218340 1.361272 1.472082
Pattern_2 1.516485 1.485907 1.431692 1.528026 1.668145 1.508994
Pattern_2 1.576689 1.529974 1.274629 1.370510 1.262146 1.275526
Pattern_2 1.120622 1.256375 1.206500 1.188082 1.194872 1.188662
Pattern_2 1.188303 1.317264 1.304115 1.450203 1.297445 1.431261
Pattern_2 1.301710 1.260454 1.197910 1.201913 1.020567 0.927009
Pattern_2 0.894019 0.765996 0.740313 0.672881 0.624201 0.524878
Pattern_2 0.512669 0.631046 0.625699 0.728693 0.906181 0.924866
Pattern_2 0.925945 1.108459 1.086840 1.279467 1.358475 1.299213
Pattern_2 1.467186 1.560741 1.508338 1.507517 1.598227 1.634137
Pattern_2 1.425254 1.371837 1.409786 1.182291 1.240631 1.163979
Pattern_2 1.172649 1.258518 1.189584 1.250853 1.371018 1.270190
Pattern_2 1.333870 1.335960 1.299428 1.398332 1.417461 1.359927
Pattern_2 1.252809 1.298180 1.087897 1.117796 0.982372 0.905767
Pattern_2 0.838590 0.740907 0.658849 0.651052 0.593283 0.611718
Pattern_2 0.574587 0.634486 0.645230 0.696829 0.848829 0.917926
Pattern_2 0.946314 1.044798 1.262492 1.310787 1.284102 1.427755
Pattern_2 1.205334 1.468249 1.521131 1.487413 1.420395 1.476889
Pattern_2 1.554257 1.504246 1.490424 1.393725 1.375076 1.268661
Pattern_2 1.260803 1.325260 1.295480 1.311835 1.290700 1.260272
Pattern_2 1.298468 1.300820 1.387806 1.342460 1.331867 1.323879
Pattern_2 1.396397 1.346747 1.251247 1.185057 1.103755 0.961996
Pattern_2 0.906520 0.803506 0.646316 0.630340 0.550579 0.532628
Pattern_2 0.565389 0.564239 0.640475 0.701768 0.877628 0.841586
Pattern_2 0.916105 1.099025 1.190564 1.254920 1.396417 1.507114
Pattern_2 1.597963 1.474767 1.604747 1.541105 1.454368 1.432954
Pattern_2 1.408252 1.397702 1.344993 1.393033 1.210544 1.225367
Pattern_2 1.121816 1.383201 1.290839 1.264382 1.268206 1.393908
Pattern_2 1.302806 1.402228 1.420923 1.486317 1.376247 1.434567
Pattern_2 1.278233 1.256792 1.182011 1.168218 1.104395 0.984311

Pattern_3 0.773465 0.689622 0.734018 0.643353 0.552507 0.487424
Pattern_3 0.486726 0.504764 0.454807 0.479634 0.558456 0.522173
Pattern_3 0.604581 0.745925 0.821303 0.900109 0.959293 1.176426
Pattern_3 1.063994 1.225916 1.351085 1.313743 1.259406 1.420130
Pattern_3 1.442872 1.420206 1.318105 1.225110 1.311949 1.172750
Pattern_3 1.152276 1.101697 1.164149 1.189149 1.238505 1.247452
Pattern_3 1.396089 1.218683 1.335311 1.341975 1.396919 1.379317
Pattern_3 1.243715 1.263391 1.147761 1.049755 0.956843 0.792748
Pattern_3 0.816814 0.648913 0.552702 0.523258 0.465587 0.390920
Pattern_3 0.354644 0.446372 0.443900 0.565184 0.724353 0.737218
Pattern_3 0.829433 1.083164 1.186280 1.277988 1.504927 1.568725
Pattern_3 1.590502 1.805395 1.690264 1.886743 1.787329 1.706583
Pattern_3 1.666950 1.508164 1.369573 1.296100 1.256155 1.292564
Pattern_3 1.104784 1.060414 1.207196 1.089913 1.135929 1.264333
Pattern_3 1.398183 1.571192 1.439784 1.439551 1.595616 1.380154
Pattern_3 1.356276 1.499726 1.377983 1.095856 1.029801 0.905755
Pattern_3 0.749242 0.706869 0.577835 0.536068 0.458513 0.396534
Pattern_3 0.409776 0.439618 0.489909 0.586585 0.672531 0.859000
Pattern_3 0.886556 1.021121 1.235032 1.314355 1.526842 1.423221
Pattern_3 1.654385 1.555692 1.648858 1.605365 1.566785 1.587662
Pattern_3 1.458154 1.405388 1.340064 1.243554 1.274675 1.274252
Pattern_3 1.301962 1.195422 1.132445 1.343726 1.277302 1.282767
Pattern_3 1.444107 1.450571 1.499507 1.542046 1.539884 1.570680
Pattern_3 1.494567 1.442081 1.457069 1.095808 1.016421 0.902630
Pattern_3 0.710996 0.611943 0.548619 0.477872 0.408058 0.416268
Pattern_3 0.395254 0.484165 0.529406 0.644160 0.750471 0.914284
Pattern_3 0.932573 1.170546 1.087356 1.314058 1.341675 1.550048
Pattern_3 1.570682 1.601268 1.588287 1.586330 1.475912 1.394010
Pattern_3 1.491773 1.439067 1.318560 1.344892 1.266863 1.282205
Pattern_3 1.230444 1.239263 1.208451 1.334932 1.430552 1.254188
Pattern_3 1.521648 1.412824 1.557508 1.511929 1.411046 1.454954
Pattern_3 1.311622 1.313929 1.289361 1.168040 1.002147 0.949689
Pattern_3 0.762483 0.696119 0.558067 0.500287 0.435330 0.418842
Pattern_3 0.412262 0.453136 0.532796 0.656661 0.683170 0.770508
Pattern_3 1.047590 1.062929 1.285031 1.459432 1.642008 1.462581
Pattern_3 1.486202 1.667748 1.694525 1.604323 1.534668 1.558365
Pattern_3 1.360077 1.362361 1.413148 1.317057 1.279432 1.267477
Pattern_3 1.129585 1.211055 1.199736 1.295888 1.365076 1.231964
Pattern_3 1.427908 1.457693 1.382958 1.468102 1.567689 1.570639
Pattern_3 1.444179 1.333537 1.186469 1.190833 1.153017 0.999604

Pattern_4 0.910325 0.811934 0.827354 0.706987 0.671370 0.676215
Pattern_4 0.665837 0.655843 0.588247 0.599457 0.677422 0.678730
Pattern_4 0.756026 0.813395 0.868731 0.978768 0.946719 1.056032
Pattern_4 1.171483 1.268803 1.221962 1.256852 1.323301 1.291770
Pattern_4 1.280393 1.220663 1.348840 1.242404 1.185132 1.292501
Pattern_4 1.298382 1.114482 1.174439 1.207648 1.129392 1.272258
Pattern_4 1.145445 1.350962 1.332098 1.254907 1.312746 1.244281
Pattern_4 1.102505 1.170740 1.151767 1.137675 1.063333 0.882479
Pattern_4 0.740753 0.787084 0.715430 0.699971 0.583427 0.623951
Pattern_4 0.559369 0.607019 0.625659 0.745997 0.826168 0.903815
Pattern_4 0.998684 1.094638 1.242330 1.391351 1.368620 1.432587
Pattern_4 1.575748 1.687560 1.726092 1.645635 1.486624 1.598539
Pattern_4 1.563200 1.376516 1.476598 1.488060 1.263354 1.054686
Pattern_4 1.083771 1.229159 1.145112 1.179591 1.134786 1.074385
Pattern_4 1.201559 1.400450 1.337444 1.365508 1.289208 1.350530
Pattern_4 1.223687 1.351138 1.203089 1.156899 1.035515 0.895352
Pattern_4 0.909123 0.770712 0.775277 0.666747 0.608827 0.531993
Pattern_4 0.623512 0.581066 0.664925 0.677201 0.793552 0.873121
Pattern_4 0.930030 1.024331 1.208421 1.196412 1.339546 1.510511
Pattern_4 1.415343 1.538602 1.536588 1.528145 1.535170 1.477577
Pattern_4 1.452267 1.346009 1.343835 1.276235 1.207444 1.164333
Pattern_4 1.221188 1.167829 1.308222 1.238111 1.239242 1.336307
Pattern_4 1.234301 1.335409 1.379012 1.293583 1.389165 1.394962
Pattern_4 1.427918 1.341227 1.232214 1.197371 1.071774 1.047790
Pattern_4 0.814374 0.802164 0.682609 0.694166 0.585443 0.573770
Pattern_4 0.601222 0.670172 0.667432 0.747387 0.914099 0.878634
Pattern_4 0.961004 1.136740 1.116075 1.288287 1.237241 1.438069
Pattern_4 1.451294 1.519056 1.474582 1.433411 1.576533 1.492001
Pattern_4 1.425826 1.345964 1.375237 1.216381 1.336552 1.257057
Pattern_4 1.325217 1.284037 1.196343 1.280769 1.200624 1.241676
Pattern_4 1.312728 1.223401 1.178213 1.254421 1.453002 1.461730
Pattern_4 1.405680 1.428259 1.294002 1.099519 1.140249 1.039825
Pattern_4 0.884568 0.769325 0.717680 0.639651 0.654398 0.575947
Pattern_4 0.595312 0.648565 0.689470 0.797574 0.801072 0.898807
Pattern_4 0.989461 1.007488 1.278866 1.449874 1.481362 1.555438
Pattern_4 1.452774 1.577983 1.618955 1.546273 1.512368 1.433314
Pattern_4 1.324283 1.292344 1.385879 1.301881 1.204806 1.203528
Pattern_4 1.267137 1.266923 1.260918 1.128493 1.394298 1.160206
Pattern_4 1.341669 1.278445 1.324112 1.367750 1.431143 1.369362
Pattern_4 1.260496 1.341563 1.297289 1.160255 1.114244 0.979350

Pattern_5 0.711629 0.725068 0.668931 0.656251 0.602898 0.586936
Pattern_5 0.542422 0.498093 0.541825 0.568001 0.580228 0.591927
Pattern_5 0.715754 0.632604 0.860059 0.917594 0.940143 1.086506
Pattern_5 1.218434 1.221202 1.284709 1.365048 1.382087 1.318828
Pattern_5 1.306635 1.347223 1.210420 1.290587 1.327748 1.338651
Pattern_5 1.325523 1.161437 1.293398 1.298989 1.356670 1.295904
Pattern_5 1.129668 1.265779 1.146074 1.333633 1.170485 1.222257
Pattern_5 1.139794 1.182021 1.102475 1.005919 0.922006 0.905645
Pattern_5 0.812033 0.676419 0.585912 0.543491 0.535743 0.451930
Pattern_5 0.466344 0.509527 0.621237 0.708069 0.728551 0.909571
Pattern_5 0.915327 1.204191 1.148643 1.281688 1.345474 1.466319
Pattern_5 1.600498 1.668126 1.846774 1.606312 1.592683 1.598667
Pattern_5 1.434168 1.530963 1.447026 1.427631 1.318297 1.229435
Pattern_5 1.207607 1.242223 1.154232 1.158468 1.202798 1.253930
Pattern_5 1.156932 1.380466 1.244846 1.591274 1.353592 1.240014
Pattern_5 1.336435 1.393142 1.182084 1.033251 1.055414 0.921312
Pattern_5 0.812839 0.785283 0.650663 0.569980 0.507431 0.509577
Pattern_5 0.511600 0.569978 0.676428 0.691149 0.688177 0.821964
Pattern_5 0.942383 1.071104 1.242132 1.273088 1.399277 1.371666
Pattern_5 1.559723 1.578845 1.610852 1.651477 1.604114 1.672302
Pattern_5 1.469205 1.527560 1.422422 1.446060 1.280587 1.182072
Pattern_5 1.280032 1.125326 1.171193 1.302754 1.221535 1.323154
Pattern_5 1.386695 1.231060 1.325597 1.350496 1.337381 1.493989
Pattern_5 1.303517 1.270320 1.197950 1.118952 1.028953 0.857532
Pattern_5 0.848485 0.755974 0.608215 0.551497 0.544504 0.459561
Pattern_5 0.454115 0.518441 0.642533 0.629393 0.779530 0.881889
Pattern_5 0.951057 1.169324 1.256546 1.342270 1.410139 1.578463
Pattern_5 1.560114 1.509945 1.669094 1.479482 1.672434 1.594101
Pattern_5 1.556697 1.585227 1.364855 1.375444 1.363139 1.404178
Pattern_5 1.236435 1.208889 1.315478 1.218120 1.301661 1.278202
Pattern_5 1.374068 1.308627 1.398742 1.390820 1.268396 1.434812
Pattern_5 1.379464 1.277350 1.202501 1.019346 1.072750 0.935758
Pattern_5 0.852074 0.698937 0.622334 0.560160 0.502066 0.495094
Pattern_5 0.529150 0.547704 0.567992 0.663008 0.758913 0.885264
Pattern_5 0.956373 1.136991 1.289652 1.313005 1.337767 1.393597
Pattern_5 1.465427 1.543924 1.516526 1.580741 1.600166 1.344516
Pattern_5 1.410183 1.377713 1.328629 1.305904 1.178488 1.250057
Pattern_5 1.104907 1.268049 1.285042 1.175829 1.371437 1.409763
Pattern_5 1.407585 1.297622 1.348552 1.414780 1.491433 1.344915
Pattern_5 1.313552 1.197752 1.293732 1.186161 1.028581 0.969927

Pattern_6 0.789524 0.751956 0.715675 0.641140 0.615687 0.618132
Pattern_6 0.529783 0.575406 0.503307 0.551176 0.629224 0.675210
Pattern_6 0.657582 0.775202 0.839461 0.905155 1.133162 1.159009
Pattern_6 1.163769 1.332004 1.336716 1.312284 1.385217 1.485407
Pattern_6 1.501731 1.324210 1.377163 1.277973 1.239249 1.158828
Pattern_6 1.175844 1.146552 1.167131 1.142075 1.095506 1.169449
Pattern_6 1.204433 1.348872 1.305675 1.226113 1.403582 1.463509
Pattern_6 1.185369 1.225692 1.089483 1.005273 0.959333 0.959220
Pattern_6 0.825804 0.690749 0.584973 0.560736 0.484688 0.487041
Pattern_6 0.476214 0.551616 0.574604 0.657058 0.683305 0.891766
Pattern_6 1.002787 1.250502 1.201362 1.343941 1.412182 1.550284
Pattern_6 1.660554 1.697759 1.682860 1.711653 1.615416 1.671431
Pattern_6 1.435042 1.243922 1.353024 1.306500 1.217927 1.163497
Pattern_6 1.166535 1.151679 1.117512 1.103617 1.103054 1.235599
Pattern_6 1.165034 1.286589 1.359297 1.354211 1.459745 1.433091
Pattern_6 1.491021 1.403956 1.234916 1.073154 1.084598 1.077081
Pattern_6 0.906002 0.821409 0.647884 0.612554 0.503599 0.470870
Pattern_6 0.566942 0.521861 0.611636 0.697270 0.832944 0.910039
Pattern_6 0.955154 1.174330 1.276799 1.318163 1.410931 1.677596
Pattern_6 1.562083 1.507810 1.587586 1.637117 1.587082 1.547858
Pattern_6 1.397777 1.370011 1.363029 1.326874 1.106393 1.117147
Pattern_6 1.170018 1.230406 1.042941 1.151258 1.238272 1.351547
Pattern_6 1.309282 1.294665 1.433479 1.448283 1.550419 1.388978
Pattern_6 1.397581 1.427795 1.186584 1.177722 1.001311 0.930659
Pattern_6 0.881863 0.744865 0.644796 0.577888 0.526681 0.473265
Pattern_6 0.508672 0.552274 0.706612 0.643485 0.865549 0.909769
Pattern_6 1.128804 1.134286 1.297010 1.320888 1.480962 1.550485
Pattern_6 1.530489 1.606601 1.569438 1.640824 1.521618 1.583418
Pattern_6 1.547812 1.449185 1.474025 1.350802 1.297605 1.298307
Pattern_6 1.204866 1.210501 1.228830 1.241508 1.204020 1.225699
Pattern_6 1.349971 1.358836 1.443814 1.424209 1.420650 1.384804
Pattern_6 1.306290 1.207657 1.300044 1.121516 1.125966 0.945570
Pattern_6 0.819303 0.701522 0.652674 0.529080 0.475018 0.507404
Pattern_6 0.487204 0.548360 0.611818 0.724291 0.800669 1.022083
Pattern_6 1.089719 1.226084 1.327527 1.441948 1.560413 1.377631
Pattern_6 1.586404 1.654947 1.659311 1.520380 1.513808 1.547463
Pattern_6 1.380406 1.338017 1.321809 1.252849 1.173682 1.059723
Pattern_6 1.176426 1.290691 1.190398 1.184390 1.331385 1.339225
Pattern_6 1.409598 1.369442 1.445702 1.488938 1.507533 1.424294
Pattern_6 1.434933 1.320361 1.227651 1.285717 1.095298 0.915393

Pattern_7 0.746535 0.708697 0.697897 0.664639 0.572022 0.569080
Pattern_7 0.569128 0.562435 0.547731 0.583223 0.584550 0.672990
Pattern_7 0.777684 0.797011 0.842138 0.998295 1.033549 1.275864
Pattern_7 1.164198 1.305588 1.306085 1.382726 1.331941 1.368073
Pattern_7 1.290630 1.317257 1.398430 1.345450 1.231041 1.131650
Pattern_7 1.167377 1.134274 1.211536 1.104037 1.093290 1.184932
Pattern_7 1.173676 1.240119 1.273095 1.347449 1.359398 1.214950
Pattern_7 1.252617 1.224928 1.187508 1.016438 0.970674 0.870058
Pattern_7 0.782137 0.685758 0.627540 0.522168 0.572748 0.452238
Pattern_7 0.479403 0.558377 0.562380 0.676438 0.818057 0.892957
Pattern_7 0.938632 1.069808 1.365518 1.299116 1.375295 1.641162
Pattern_7 1.724569 1.552093 1.653330 1.723977 1.778325 1.519187
Pattern_7 1.548939 1.351979 1.428356 1.365716 1.247274 1.148003
Pattern_7 1.299156 1.188166 1.139468 1.099024 1.210146 1.170205
Pattern_7 1.313970 1.252940 1.389342 1.340306 1.297373 1.427224
Pattern_7 1.376123 1.253026 1.253498 1.149132 1.056336 0.897797
Pattern_7 0.791150 0.706578 0.614593 0.580478 0.526169 0.515669
Pattern_7 0.559856 0.578754 0.596530 0.666352 0.766050 0.845402
Pattern_7 1.003399 1.116278 1.187168 1.272422 1.460151 1.301254
Pattern_7 1.626529 1.559897 1.542908 1.540154 1.516702 1.483828
Pattern_7 1.458678 1.549575 1.419478 1.214953 1.250097 1.084884
Pattern_7 1.154491 1.194404 1.238637 1.199911 1.393453 1.312834
Pattern_7 1.227376 1.418167 1.343783 1.468442 1.408799 1.281450
Pattern_7 1.351470 1.338669 1.191162 1.058089 1.050149 0.902666
Pattern_7 0.838763 0.716497 0.603067 0.566144 0.507807 0.517342
Pattern_7 0.546373 0.537651 0.616512 0.731518 0.763863 0.954243
Pattern_7 0.984799 1.209596 1.233959 1.387847 1.414354 1.553079
Pattern_7 1.481431 1.591599 1.643474 1.522193 1.403436 1.419962
Pattern_7 1.531526 1.463245 1.465072 1.306230 1.190943 1.245903
Pattern_7 1.147558 1.250194 1.354252 1.293351 1.266586 1.242761
Pattern_7 1.332462 1.330829 1.430575 1.329404 1.383054 1.369931
Pattern_7 1.278575 1.333809 1.099221 1.160424 0.990852 0.883514
Pattern_7 0.766364 0.805403 0.686034 0.592979 0.529934 0.510575
Pattern_7 0.512232 0.566316 0.647332 0.724748 0.811850 0.897436
Pattern_7 1.121478 1.246573 1.203178 1.426467 1.473611 1.626112
Pattern_7 1.532426 1.478410 1.473239 1.693314 1.532234 1.487830
Pattern_7 1.540280 1.547196 1.296916 1.192963 1.325099 1.207430
Pattern_7 1.169131 1.288921 1.104530 1.282368 1.164227 1.208223
Pattern_7 1.234056 1.396828 1.339731 1.371457 1.425089 1.439114
Pattern_7 1.201547 1.278873 1.272472 1.123706 1.065087 0.966944

Pattern_8 0.847430 0.880580 0.760950 0.712287 0.668159 0.630771
Pattern_8 0.671521 0.612077 0.697718 0.659640 0.690934 0.764416
Pattern_8 0.776839 0.840296 0.931131 0.978130 1.008972 1.031768
Pattern_8 1.182565 1.233569 1.395951 1.389825 1.369294 1.329214
Pattern_8 1.310902 1.271826 1.274790 1.303464 1.264823 1.168789
Pattern_8 1.099803 1.151870 1.081170 1.202303 1.185901 1.184751
Pattern_8 1.083079 1.230053 1.167431 1.279137 1.302861 1.247974
Pattern_8 1.177004 1.147441 1.110482 1.064706 1.050835 0.861252
Pattern_8 0.808905 0.735824 0.694683 0.611137 0.622637 0.633080
Pattern_8 0.544983 0.625480 0.715715 0.729747 0.806213 0.886432
Pattern_8 0.963998 1.172012 1.309865 1.213705 1.408549 1.616767
Pattern_8 1.643334 1.647325 1.523739 1.632976 1.697829 1.448347
Pattern_8 1.410095 1.534688 1.303953 1.317554 1.220815 1.337530
Pattern_8 1.118559 1.161944 1.073231 1.074323 1.125340 1.133781
Pattern_8 1.181531 1.221483 1.239780 1.283278 1.234231 1.340618
Pattern_8 1.232637 1.271530 1.170939 1.165245 1.028545 1.006354
Pattern_8 0.816196 0.746778 0.692868 0.674478 0.603245 0.609938
Pattern_8 0.664174 0.612710 0.678720 0.764027 0.767708 0.849896
Pattern_8 0.997166 1.188204 1.240433 1.428402 1.308771 1.256467
Pattern_8 1.576805 1.506040 1.522768 1.526652 1.624552 1.504159
Pattern_8 1.374867 1.466899 1.371178 1.343252 1.393674 1.267392
Pattern_8 1.173225 1.047229 1.220098 1.225553 1.194704 1.162901
Pattern_8 1.147289 1.374883 1.375547 1.395903 1.316801 1.384485
Pattern_8 1.281386 1.247782 1.273177 1.200267 1.121142 0.977616
Pattern_8 0.867505 0.795741 0.719291 0.670318 0.670304 0.641700
Pattern_8 0.620696 0.641162 0.741545 0.823719 0.853654 0.967137
Pattern_8 1.106344 1.207658 1.135641 1.216115 1.377679 1.423359
Pattern_8 1.404085 1.592326 1.529244 1.535547 1.582024 1.463873
Pattern_8 1.442715 1.477191 1.330969 1.419311 1.318281 1.265529
Pattern_8 1.235563 1.326415 1.285703 1.058960 1.266220 1.283229
Pattern_8 1.356244 1.389678 1.359312 1.335851 1.312585 1.370625
Pattern_8 1.315399 1.313566 1.246820 1.212819 0.959210 0.950149
Pattern_8 0.980939 0.812370 0.697853 0.712028 0.610424 0.641219
Pattern_8 0.646592 0.632433 0.733920 0.779623 0.774911 0.843821
Pattern_8 1.001819 1.086533 1.272213 1.309585 1.397392 1.484125
Pattern_8 1.521695 1.380819 1.443484 1.309089 1.514098 1.281273
Pattern_8 1.364240 1.335592 1.370407 1.228143 1.233843 1.183234
Pattern_8 1.249408 1.193002 1.220718 1.279055 1.198943 1.378742
Pattern_8 1.247828 1.304106 1.316442 1.228843 1.348393 1.234670
Pattern_8 1.254973 1.138158 1.180080 1.129454 0.959791 0.940484

Pattern_9 0.831450 0.778111 0.752443 0.752519 0.691983 0.664309
Pattern_9 0.661802 0.630159 0.624585 0.652190 0.596757 0.655556
Pattern_9 0.733325 0.722006 0.802754 0.985142 0.982632 1.007772
Pattern_9 1.162385 1.168420 1.150755 1.379574 1.190344 1.448029
Pattern_9 1.351600 1.314850 1.397146 1.304717 1.192448 1.172565
Pattern_9 1.066630 1.245197 1.222905 1.240245 1.172897 1.201696
Pattern_9 1.173899 1.160442 1.299357 1.215388 1.287676 1.229935
Pattern_9 1.151226 1.068762 1.139689 1.009883 1.004542 0.858439
Pattern_9 0.774097 0.771594 0.669781 0.623456 0.566255 0.576225
Pattern_9 0.616148 0.594224 0.645605 0.649000 0.728026 0.836909
Pattern_9 0.920713 1.066281 1.197489 1.159214 1.299203 1.401495
Pattern_9 1.558950 1.536862 1.577505 1.453426 1.449877 1.515095
Pattern_9 1.538820 1.420461 1.368032 1.195952 1.184218 1.094885
Pattern_9 1.189475 1.238162 1.141535 1.231507 1.213463 1.199548
Pattern_9 1.342907 1.357804 1.283919 1.322266 1.257771 1.292369
Pattern_9 1.282815 1.312902 1.228929 1.168610 1.030609 0.947014
Pattern_9 0.961048 0.879039 0.687159 0.710848 0.647990 0.604488
Pattern_9 0.589978 0.611858 0.656589 0.732254 0.783056 0.883182
Pattern_9 1.003882 1.028331 1.185636 1.207984 1.311156 1.376874
Pattern_9 1.391689 1.460711 1.435221 1.452827 1.514943 1.412025
Pattern_9 1.406934 1.372296 1.273418 1.269370 1.210405 1.230149
Pattern_9 1.292416 1.143373 1.153139 1.143247 1.275641 1.328740
Pattern_9 1.332840 1.242785 1.328401 1.405960 1.310733 1.344502
Pattern_9 1.491300 1.186932 1.273526 1.153154 1.080335 0.995720
Pattern_9 0.892645 0.788918 0.759637 0.663082 0.572821 0.610760
Pattern_9 0.574868 0.567614 0.686640 0.681823 0.820006 0.843891
Pattern_9 1.020890 1.059367 1.255316 1.260671 1.124806 1.380986
Pattern_9 1.345737 1.503259 1.502377 1.419208 1.452324 1.535329
Pattern_9 1.301951 1.510873 1.408276 1.304724 1.208069 1.244700
Pattern_9 1.297301 1.234558 1.215667 1.287733 1.234380 1.256063
Pattern_9 1.393974 1.283275 1.403368 1.313117 1.307679 1.277680
Pattern_9 1.270790 1.320585 1.211734 1.114005 1.152776 1.044725
Pattern_9 0.920839 0.798661 0.749657 0.645667 0.598458 0.539563
Pattern_9 0.624472 0.615149 0.673827 0.774836 0.858669 0.946295
Pattern_9 0.958930 1.131886 1.286068 1.327377 1.407324 1.352293
Pattern_9 1.479679 1.561536 1.445324 1.569436 1.507105 1.442421
Pattern_9 1.373786 1.459442 1.291258 1.232402 1.258812 1.236181
Pattern_9 1.179752 1.250031 1.169766 1.232548 1.199061 1.197012
Pattern_9 1.351974 1.367599 1.370295 1.303237 1.388417 1.285457
Pattern_9 1.403843 1.338297 1.277058 1.275628 0.983321 0.957547

Pattern_10 0.787664 0.809662 0.697274 0.697513 0.557420 0.555762
Pattern_10 0.578083 0.567955 0.552253 0.602458 0.571953 0.657857
Pattern_10 0.741891 0.870949 0.753351 0.936217 1.102584 1.161305
Pattern_10 1.144721 1.276693 1.292276 1.300048 1.368132 1.301810
Pattern_10 1.446228 1.258671 1.209452 1.169473 1.253373 1.121726
Pattern_10 1.223263 1.151891 1.184999 1.106332 1.325600 1.266689
Pattern_10 1.223882 1.282483 1.357838 1.271684 1.308150 1.276455
Pattern_10 1.241219 1.124187 1.082421 0.927141 1.053049 0.919664
Pattern_10 0.805191 0.779855 0.577398 0.626496 0.574544 0.517592