; Filename: ../LeakDB/CCWI-WDSA2018/Dataset_Generator/networks/Hanoi_CMH.inp
; WNTR: 0.3.1
; Created: 2022-05-09 17:55:07
[TITLE]

[JUNCTIONS]
;ID                      Elevation       Demand Pattern                 
 2                                 30          247.22 Pattern_2                  ;
 3                                 30          236.11 Pattern_3                  ;
 4                                 30           36.11 Pattern_4                  ;
 5                                 30          201.39 Pattern_5                  ;
 6                                 30          279.17 Pattern_6                  ;
 7                                 30             375 Pattern_7                  ;
 8                                 30          152.78 Pattern_8                  ;
 9                                 30          145.83 Pattern_9                  ;
 10                                30          145.83 Pattern_10                 ;
 11                                30          138.89 Pattern_11                 ;
 12                                30          155.56 Pattern_12                 ;
 13                                30          261.11 Pattern_13                 ;
 14                                30          170.83 Pattern_14                 ;
 15                                30           77.78 Pattern_15                 ;
 16                                30           86.11 Pattern_16                 ;
 17                                30          240.28 Pattern_17                 ;
 18                                30          373.61 Pattern_18                 ;
 19                                30           16.67 Pattern_19                 ;
 20                                30          354.17 Pattern_20                 ;
 21                                30          258.33 Pattern_21                 ;
 22                                30          134.72 Pattern_22                 ;
 23                                30          290.28 Pattern_23                 ;
 24                                30          227.78 Pattern_24                 ;
 25                                30           47.22 Pattern_25                 ;
 26                                30             250 Pattern_26                 ;
 27                                30          102.78 Pattern_27                 ;
 28                                30           80.56 Pattern_28                 ;
 29                                30             100 Pattern_29                 ;
 30                                30             100 Pattern_30                 ;
 31                                30           29.17 Pattern_31                 ;
 32                                30          223.61 Pattern_32                 ;

[RESERVOIRS]
;ID                                   Head                  Pattern
 1                                100                            ;

[TANKS]
;ID                              Elevation           Init Level            Min Level            Max Level             Diameter           Min Volume Volume Curve         Overflow            

[PIPES]
;ID                   Node1                Node2                              Length             Diameter            Roughness           Minor Loss               Status
 1                    1                    2                                100            1016             130               0                 Open   ;
 2                    2                    3                               1350            1016             130               0                 Open   ;
 3                    3                    4                                900            1016             130               0                 Open   ;
 4                    4                    5                               1150            1016             130               0                 Open   ;
 5                    5                    6                               1450            1016             130               0                 Open   ;
 6                    6                    7                                450            1016             130               0                 Open   ;
 7                    7                    8                                850            1016             130               0                 Open   ;
 8                    8                    9                                850            1016             130               0                 Open   ;
 9                    9                    10                               800            1016             130               0                 Open   ;
 10                   10                   11                               950             762             130               0                 Open   ;
 11                   11                   12                              1200             762             130               0                 Open   ;
 12                   12                   13                              3500           609.6             130               0                 Open   ;
 13                   10                   14                               800           406.4             130               0                 Open   ;
 14                   14                   15                               500           406.4             130               0                 Open   ;
 15                   15                   16                               550           304.8             130               0                 Open   ;
 16                   17                   16                              2730           406.4             130               0                 Open   ;
 17                   17                   18                              1750             508             130               0                 Open   ;
 18                   18                   19                               800           609.6             130               0                 Open   ;
 19                   19                   3                                400           609.6             130               0                 Open   ;
 20                   3                    20                              2200            1016             130               0                 Open   ;
 21                   20                   21                              1500             508             130               0                 Open   ;
 22                   21                   22                               500           304.8             130               0                 Open   ;
 23                   20                   23                              2650            1016             130               0                 Open   ;
 24                   23                   24                              1230             762             130               0                 Open   ;
 25                   24                   25                              1300             762             130               0                 Open   ;
 26                   26                   25                               850             508             130               0                 Open   ;
 27                   27                   26                               300           304.8             130               0                 Open   ;
 28                   16                   27                               750           304.8             130               0                 Open   ;
 29                   23                   28                              1500           406.4             130               0                 Open   ;
 30                   28                   29                              2000           406.4             130               0                 Open   ;
 31                   29                   30                              1600           304.8             130               0                 Open   ;
 32                   30                   31                               150           304.8             130               0                 Open   ;
 33                   32                   31                               860           406.4             130               0                 Open   ;
 34                   25                   32                               950             508             130               0                 Open   ;

[PUMPS]
;ID                   Node1                Node2                Properties          

[VALVES]
;ID                   Node1                Node2                            Diameter Type              Setting           Minor Loss

[TAGS]
;type      name       tag       

[DEMANDS]
;ID        Demand     Pattern   

[STATUS]
;ID        Setting   
[PATTERNS]
;ID        Multipliers

Pattern_2 0.879415 0.747695 0.682130 0.670462 0.584240 0.585198
Pattern_2 0.557007 0.565802 0.548704 0.571522 0.617360 0.700014
Pattern_2 0.765378 0.734975 0.864757 0.941284 0.958438 1.009211
Pattern_2 1.109188 1.121106 1.219017 1.427757 1.232098 1.384940
Pattern_2 1.350318 1.305667 1.390574 1.325535 1.319995 1.259197
Pattern_2 1.238491 1.081780 1.206109 1.119143 1.212792 1.201140
Pattern_2 1.191041 1.180256 1.436263 1.330889 1.246707 1.101786
Pattern_2 1.274278 1.103435 1.061337 0.930592 0.943247 0.893075
Pattern_2 0.727784 0.660722 0.660790 0.617377 0.546353 0.526580
Pattern_2 0.462209 0.543446 0.550030 0.670325 0.696683 0.792921
Pattern_2 0.924121 1.016729 1.148489 1.310850 1.327591 1.375512
Pattern_2 1.424670 1.554609 1.701891 1.563762 1.604852 1.532380
Pattern_2 1.397675 1.416902 1.426512 1.229372 1.221293 1.156587
Pattern_2 1.144534 1.238565 1.091957 1.003564 1.246845 1.251189
Pattern_2 1.146189 1.221021 1.349363 1.228793 1.156737 1.279970
Pattern_2 1.254587 1.190556 1.074594 1.038434 0.976928 0.892534
Pattern_2 0.782794 0.751448 0.666737 0.578319 0.545954 0.534110
Pattern_2 0.504535 0.560957 0.607334 0.623036 0.710664 0.878390
Pattern_2 0.951876 1.016246 1.158969 1.269453 1.326384 1.333574
Pattern_2 1.500088 1.511243 1.481807 1.564062 1.452400 1.473361
Pattern_2 1.478523 1.397719 1.355833 1.261046 1.273215 1.189563
Pattern_2 1.251184 1.190781 1.128484 1.193652 1.218082 1.323177
Pattern_2 1.279425 1.344578 1.308095 1.435945 1.295022 1.280804
Pattern_2 1.209851 1.270775 1.126709 1.147001 0.928065 0.879170
Pattern_2 0.780099 0.694753 0.684644 0.575764 0.563061 0.492463
Pattern_2 0.538103 0.524970 0.682091 0.751521 0.757621 0.889186
Pattern_2 0.986149 1.038748 1.152653 1.249403 1.424721 1.356093
Pattern_2 1.437628 1.556320 1.645729 1.435140 1.420130 1.523124
Pattern_2 1.580501 1.434983 1.299759 1.415468 1.310299 1.252604
Pattern_2 1.264154 1.287781 1.259309 1.276825 1.185746 1.432688
Pattern_2 1.462448 1.325383 1.301702 1.292202 1.242089 1.362219
Pattern_2 1.208060 1.344977 1.063926 1.082186 0.977968 0.899381
Pattern_2 0.839049 0.729675 0.617264 0.561855 0.546589 0.506930
Pattern_2 0.539522 0.545708 0.639181 0.683590 0.831519 0.937991
Pattern_2 1.017542 1.143684 1.257491 1.236448 1.342295 1.412356
Pattern_2 1.482554 1.367998 1.552279 1.488000 1.456180 1.456322
Pattern_2 1.364078 1.373593 1.400268 1.337975 1.239045 1.198418
Pattern_2 1.249381 1.285301 1.269292 1.336051 1.236128 1.330763
Pattern_2 1.250108 1.323156 1.301907 1.417767 1.465137 1.396044
Pattern_2 1.233162 1.192271 1.115178 1.084153 1.041311 0.930755
Pattern_2 0.791448 0.721560 0.624902 0.647613 0.550019 0.587102
Pattern_2 0.558521 0.691624 0.646109 0.795627 0.788548 0.880456
Pattern_2 1.071868 1.177752 1.380552 1.538945 1.672278 1.663784
Pattern_2 1.740958 1.707742 1.786657 1.678703 1.661895 1.443755
Pattern_2 1.552036 1.460066 1.406421 1.400610 1.320847 1.378627
Pattern_2 1.302819 1.184523 1.251113 1.247819 1.353720 1.270369
Pattern_2 1.432097 1.309125 1.362140 1.290916 1.243862 1.347030
Pattern_2 1.207891 1.071498 1.077641 1.006079 0.982258 0.964182
Pattern_2 0.803248 0.826690 0.780054 0.631122 0.661415 0.595191
Pattern_2 0.555352 0.530234 0.602206 0.621236 0.626731 0.802784
Pattern_2 0.845925 0.849551 0.950227 1.083705 1.133081 1.177827
Pattern_2 1.310873 1.361324 1.492615 1.343526 1.441307 1.481424
Pattern_2 1.569839 1.409737 1.495653 1.432480 1.494174 1.277012
Pattern_2 1.384181 1.360051 1.295533 1.370339 1.339849 1.224914
Pattern_2 1.292190 1.249032 1.143755 1.239637 1.152243 1.109814
Pattern_2 1.004583 1.046078 0.943518 0.998004 0.870645 0.824010
Pattern_2 0.762190 0.719403 0.702227 0.632559 0.623766 0.589414
Pattern_2 0.574713 0.589378 0.593306 0.636005 0.595616 0.643162
Pattern_2 0.692363 0.784801 0.795252 0.913751 1.043447 1.115651
Pattern_2 1.103008 1.283337 1.302169 1.210376 1.376095 1.413602
Pattern_2 1.348363 1.364105 1.306772 1.209357 1.210241 1.328798
Pattern_2 1.254748 1.120706 1.137263 1.138728 1.206889 1.209169
Pattern_2 1.259404 1.309617 1.430359 1.267263 1.224088 1.112231
Pattern_2 1.171672 1.140425 1.122391 0.960440 0.983917 0.847361
Pattern_2 0.734246 0.721901 0.626352 0.596775 0.523237 0.482499
Pattern_2 0.528025 0.541197 0.580541 0.707510 0.748378 0.753442
Pattern_2 0.876707 0.956363 1.270094 1.205966 1.437244 1.325419
Pattern_2 1.566656 1.619931 1.659508 1.491106 1.713134 1.573226
Pattern_2 1.581106 1.385515 1.407915 1.237911 1.244297 1.264415
Pattern_2 1.285582 1.239880 1.215950 1.259733 1.248851 1.196925
Pattern_2 1.221680 1.354432 1.317860 1.339595 1.346711 1.398657
Pattern_2 1.274866 1.269810 1.281707 1.202880 0.914129 0.877252
Pattern_2 0.847924 0.690718 0.618211 0.615095 0.544874 0.490087
Pattern_2 0.583770 0.517672 0.631998 0.668670 0.739475 0.847713
Pattern_2 0.955720 1.053669 1.079914 1.201352 1.281962 1.509567
Pattern_2 1.478327 1.451127 1.488353 1.609640 1.555931 1.521410
Pattern_2 1.439721 1.321647 1.533219 1.226093 1.266813 1.426117
Pattern_2 1.256442 1.343031 1.179625 1.141308 1.253606 1.386667
Pattern_2 1.278154 1.263966 1.301524 1.355957 1.346114 1.308707
Pattern_2 1.303632 1.250485 1.182166 1.127675 1.000761 0.896379
Pattern_2 0.774884 0.713067 0.632196 0.532745 0.529789 0.578636
Pattern_2 0.508763 0.580802 0.615141 0.723455 0.780852 0.901569
Pattern_2 1.015145 1.138825 1.149665 1.243344 1.338278 1.426397
Pattern_2 1.516050 1.467663 1.565883 1.592770 1.610268 1.489714
Pattern_2 1.560389 1.399533 1.448084 1.462439 1.279698 1.331066
Pattern_2 1.426516 1.259601 1.174381 1.382392 1.337652 1.298118
Pattern_2 1.405542 1.283651 1.453729 1.301501 1.344553 1.392593
Pattern_2 1.364302 1.265007 1.128789 1.152644 1.102318 0.952914
Pattern_2 0.890033 0.657716 0.671099 0.615146 0.498436 0.521087
Pattern_2 0.593002 0.578820 0.656510 0.676987 0.792236 0.899990
Pattern_2 0.947028 1.136596 1.166616 1.342442 1.404614 1.336231
Pattern_2 1.486844 1.566760 1.452996 1.503379 1.510773 1.429532
Pattern_2 1.516906 1.363233 1.348270 1.341067 1.270300 1.341779
Pattern_2 1.137857 1.263314 1.291320 1.262670 1.335843 1.301577
Pattern_2 1.341080 1.225985 1.334814 1.284578 1.409104 1.336209
Pattern_2 1.387173 1.344222 1.257012 1.132986 1.075949 0.837342
Pattern_2 0.827766 0.774309 0.681168 0.600024 0.625279 0.534218
Pattern_2 0.591867 0.645680 0.658446 0.805177 0.903495 0.974183
Pattern_2 1.232251 1.216385 1.328535 1.470982 1.641170 1.634504
Pattern_2 1.774298 1.643215 1.686848 1.736711 1.535807 1.389966
Pattern_2 1.605997 1.598607 1.483757 1.387118 1.345856 1.416122
Pattern_2 1.350239 1.317753 1.304023 1.414004 1.392922 1.399811
Pattern_2 1.410716 1.453598 1.202687 1.299453 1.209205 1.231254
Pattern_2 1.273406 1.125041 1.144811 1.115485 0.945359 0.962769
Pattern_2 0.870439 0.863320 0.727215 0.699247 0.681386 0.634570
Pattern_2 0.565823 0.562817 0.637597 0.643477 0.714967 0.806812
Pattern_2 0.864258 0.890636 0.981565 1.132598 1.254786 1.200071
Pattern_2 1.444967 1.364718 1.580296 1.477835 1.525823 1.391465
Pattern_2 1.356729 1.387865 1.438449 1.366207 1.396608 1.471227
Pattern_2 1.408210 1.251531 1.258828 1.272277 1.373492 1.250000
Pattern_2 1.433504 1.314264 1.264351 1.329517 1.168410 1.116127
Pattern_2 1.092491 1.069612 1.001972 1.021336 0.844335 0.876449
Pattern_2 0.816277

Pattern_3 0.738824 0.698490 0.655684 0.637719 0.595911 0.511171
Pattern_3 0.517109 0.519683 0.531380 0.560234 0.584958 0.634049
Pattern_3 0.695881 0.815783 0.798762 0.950018 1.023380 1.061542
Pattern_3 1.151992 1.254890 1.310545 1.312575 1.439727 1.366702
Pattern_3 1.308756 1.309436 1.432882 1.231270 1.180481 1.202627
Pattern_3 1.074925 1.108025 1.157057 1.097836 1.176425 1.221131
Pattern_3 1.184598 1.260822 1.298474 1.206647 1.242168 1.198813
Pattern_3 1.217496 1.075213 1.017598 0.940654 0.881671 0.744611
Pattern_3 0.735811 0.689721 0.485943 0.547781 0.407918 0.445961
Pattern_3 0.461051 0.450123 0.621468 0.671372 0.694057 0.823425
Pattern_3 0.963264 1.137882 1.260952 1.252920 1.539214 1.556280
Pattern_3 1.624006 1.702085 1.555129 1.598907 1.838456 1.610487
Pattern_3 1.455630 1.359300 1.491143 1.289408 1.296119 1.182576
Pattern_3 1.143045 1.140966 1.139819 1.100774 1.080050 1.179087
Pattern_3 1.216684 1.237722 1.355537 1.246041 1.341221 1.366540
Pattern_3 1.195145 1.139698 1.136668 1.074811 1.019092 0.891646
Pattern_3 0.762370 0.753538 0.563679 0.518342 0.485062 0.486908
Pattern_3 0.476921 0.490562 0.586136 0.645419 0.679052 0.868942
Pattern_3 0.908175 1.169302 1.119533 1.511179 1.451184 1.442037
Pattern_3 1.503311 1.525928 1.462676 1.518237 1.451741 1.538338
Pattern_3 1.601834 1.384007 1.265404 1.232386 1.185084 1.237140
Pattern_3 1.178260 1.175045 1.196148 1.230596 1.115420 1.348471
Pattern_3 1.182274 1.467306 1.595039 1.533809 1.477947 1.258699
Pattern_3 1.285746 1.124638 1.223543 1.113766 0.949352 0.813883
Pattern_3 0.817110 0.676045 0.534725 0.479019 0.517968 0.466697
Pattern_3 0.465509 0.507280 0.599438 0.627271 0.788896 0.913896
Pattern_3 1.001735 1.166247 1.191893 1.350993 1.318407 1.577688
Pattern_3 1.669677 1.504548 1.431874 1.508171 1.498997 1.362752
Pattern_3 1.471779 1.457955 1.318973 1.399387 1.356669 1.271506
Pattern_3 1.304964 1.181390 1.175077 1.339861 1.304557 1.207682
Pattern_3 1.281962 1.301738 1.288074 1.405171 1.385662 1.426964
Pattern_3 1.195757 1.097686 1.236117 1.192244 1.058056 0.902524
Pattern_3 0.830688 0.602172 0.563909 0.503412 0.460798 0.452851
Pattern_3 0.482746 0.547412 0.559398 0.704338 0.832786 0.939589
Pattern_3 0.966853 1.093658 1.244202 1.427790 1.415467 1.533418
Pattern_3 1.560448 1.559134 1.581025 1.514862 1.530115 1.403646
Pattern_3 1.348994 1.311382 1.210665 1.205566 1.216620 1.201652
Pattern_3 1.173105 1.241291 1.120927 1.317270 1.245128 1.255357
Pattern_3 1.246687 1.353817 1.315378 1.489741 1.235736 1.340391
Pattern_3 1.270721 1.142705 1.076466 1.192474 1.001321 0.946285
Pattern_3 0.764115 0.685150 0.608359 0.586205 0.515188 0.492578
Pattern_3 0.539519 0.573536 0.620263 0.626798 0.907998 1.060944
Pattern_3 1.112698 1.209422 1.387391 1.540150 1.682391 1.714488
Pattern_3 1.797126 1.674065 1.899490 1.743085 1.621371 1.582158
Pattern_3 1.833338 1.538231 1.407923 1.473064 1.340774 1.360261
Pattern_3 1.458496 1.221518 1.322320 1.180066 1.309085 1.324815
Pattern_3 1.347945 1.431333 1.309720 1.360188 1.344992 1.246433
Pattern_3 1.112766 1.282424 1.183620 1.063097 1.107818 0.916257
Pattern_3 0.815812 0.772212 0.729629 0.633064 0.517134 0.591275
Pattern_3 0.512043 0.539184 0.586829 0.571549 0.687551 0.745607
Pattern_3 0.877534 0.899574 1.063959 1.162476 1.236207 1.350247
Pattern_3 1.306076 1.451483 1.626080 1.384829 1.407970 1.373871
Pattern_3 1.568085 1.339404 1.473230 1.446038 1.277749 1.346448
Pattern_3 1.192543 1.381501 1.253895 1.277275 1.392648 1.394294
Pattern_3 1.268463 1.105319 1.338253 1.307116 1.205397 1.154273
Pattern_3 1.079856 1.148833 1.019116 0.957671 0.844290 0.811647
Pattern_3 0.778532 0.734438 0.729495 0.595547 0.603774 0.526532
Pattern_3 0.563420 0.527042 0.537147 0.545076 0.638713 0.694750
Pattern_3 0.737913 0.821594 0.867509 0.863609 1.070115 1.070985
Pattern_3 1.153387 1.343127 1.279028 1.385981 1.398787 1.443990
Pattern_3 1.518742 1.388583 1.363778 1.220328 1.169273 1.242023
Pattern_3 1.176215 1.135384 1.247675 1.234786 1.170870 1.172585
Pattern_3 1.042042 1.211411 1.283600 1.307978 1.206972 1.265710
Pattern_3 1.192863 1.168495 1.124632 0.983153 0.869406 0.828081
Pattern_3 0.751676 0.689261 0.533062 0.476548 0.453389 0.448326
Pattern_3 0.478376 0.520899 0.545247 0.656412 0.780211 0.894625
Pattern_3 0.985248 1.064851 1.134506 1.348314 1.522981 1.433872
Pattern_3 1.645171 1.721283 1.797800 1.593836 1.588764 1.635526
Pattern_3 1.689266 1.463077 1.422074 1.319851 1.279408 1.209235
Pattern_3 1.180251 1.228419 1.190046 1.133268 1.257329 1.144082
Pattern_3 1.234440 1.302849 1.355859 1.291685 1.320347 1.415691
Pattern_3 1.301202 1.185362 1.152219 1.086104 0.966496 0.843637
Pattern_3 0.755690 0.682656 0.619249 0.523290 0.489292 0.481774
Pattern_3 0.500219 0.480300 0.639568 0.636954 0.801144 0.831848
Pattern_3 0.985676 1.058131 1.278392 1.281962 1.356638 1.522510
Pattern_3 1.619996 1.617362 1.630292 1.655179 1.611215 1.469977
Pattern_3 1.500021 1.534037 1.361971 1.239519 1.274814 1.175887
Pattern_3 1.146053 1.114239 1.272833 1.179861 1.324383 1.261544
Pattern_3 1.434165 1.310030 1.338417 1.432741 1.346712 1.342132
Pattern_3 1.399461 1.375065 1.249952 1.032748 1.015321 0.839483
Pattern_3 0.832067 0.644729 0.590589 0.488802 0.448710 0.411746
Pattern_3 0.471397 0.593979 0.608107 0.688467 0.754039 0.892480
Pattern_3 1.020847 1.240889 1.335351 1.335745 1.385849 1.386663
Pattern_3 1.532482 1.612476 1.734215 1.500336 1.701885 1.525446
Pattern_3 1.451401 1.351883 1.190662 1.323333 1.293981 1.385073
Pattern_3 1.326272 1.309714 1.219619 1.217853 1.258262 1.213341
Pattern_3 1.417696 1.413932 1.386358 1.323089 1.368270 1.431764
Pattern_3 1.277248 1.312039 1.215107 1.138136 1.014491 0.856126
Pattern_3 0.821751 0.710396 0.638287 0.510530 0.481664 0.490215
Pattern_3 0.489652 0.530724 0.556195 0.729813 0.811796 0.944573
Pattern_3 1.088046 1.171921 1.302358 1.218940 1.605805 1.555012
Pattern_3 1.708217 1.639927 1.568110 1.639743 1.410252 1.497058
Pattern_3 1.436336 1.552776 1.280637 1.345735 1.322773 1.156282
Pattern_3 1.248801 1.169059 1.224856 1.262276 1.375779 1.393478
Pattern_3 1.326238 1.309821 1.298806 1.446332 1.486807 1.372787
Pattern_3 1.375687 1.257342 1.118653 1.092739 1.121261 0.892967
Pattern_3 0.789327 0.730178 0.650097 0.574272 0.482697 0.502253
Pattern_3 0.579399 0.572116 0.613460 0.746655 0.858520 1.033739
Pattern_3 1.165497 1.242464 1.521145 1.432668 1.525613 1.778585
Pattern_3 1.829576 1.933363 1.844279 1.725854 1.787690 1.556584
Pattern_3 1.677582 1.641125 1.556056 1.233386 1.401754 1.439122
Pattern_3 1.313910 1.368273 1.341811 1.375744 1.284544 1.385812
Pattern_3 1.265295 1.329411 1.449961 1.286368 1.331590 1.259723
Pattern_3 1.381113 1.248715 1.171340 1.035390 1.026998 1.009871
Pattern_3 0.844235 0.822738 0.610131 0.665825 0.572275 0.553642
Pattern_3 0.572245 0.566710 0.517699 0.645014 0.683424 0.729650
Pattern_3 0.863099 0.947363 1.071192 1.196078 1.278606 1.241118
Pattern_3 1.419416 1.528255 1.422454 1.514778 1.505602 1.532052
Pattern_3 1.577021 1.403904 1.368267 1.257551 1.460000 1.429159
Pattern_3 1.196282 1.300763 1.252275 1.296629 1.317224 1.378182
Pattern_3 1.356156 1.448876 1.251835 1.240794 1.239682 1.143042
Pattern_3 1.106171 1.094976 0.961940 1.004747 0.815775 0.844993
Pattern_3 0.792736

Pattern_4 0.854222 0.831333 0.842950 0.686158 0.719568 0.705579
Pattern_4 0.706849 0.675564 0.702317 0.678168 0.712932 0.772569
Pattern_4 0.864036 0.810231 0.835334 1.007540 1.022401 1.064437
Pattern_4 1.195561 1.206235 1.322772 1.290017 1.272652 1.344798
Pattern_4 1.292711 1.294428 1.374569 1.119313 1.121109 1.182782
Pattern_4 1.210813 1.187395 1.141164 1.171374 1.075097 1.168544
Pattern_4 1.234316 1.117783 1.224755 1.210538 1.146712 1.098359
Pattern_4 1.137436 1.164288 1.159383 1.022042 0.947311 0.855384
Pattern_4 0.842255 0.772937 0.728972 0.590299 0.632240 0.621732
Pattern_4 0.624503 0.656539 0.642278 0.709562 0.866864 0.828304
Pattern_4 0.943051 0.984084 1.211713 1.146975 1.253010 1.386312
Pattern_4 1.460826 1.600901 1.458157 1.438461 1.412513 1.359899
Pattern_4 1.358726 1.412839 1.410259 1.227605 1.254315 1.234625
Pattern_4 1.084598 1.122212 1.104597 1.196285 1.163731 1.202583
Pattern_4 1.147761 1.292446 1.185908 1.327840 1.166261 1.198730
Pattern_4 1.305200 1.247967 1.255769 1.044697 1.101274 0.975911
Pattern_4 0.881197 0.806634 0.735901 0.676689 0.640314 0.666745
Pattern_4 0.603837 0.579208 0.735176 0.750680 0.791926 0.960789
Pattern_4 0.990591 1.035924 1.203718 1.259054 1.313880 1.418817
Pattern_4 1.431088 1.438530 1.425245 1.388531 1.376661 1.367479
Pattern_4 1.302106 1.363213 1.163453 1.230026 1.102627 1.119089
Pattern_4 1.099900 1.045946 1.246307 1.144901 1.067194 1.276605
Pattern_4 1.240276 1.328467 1.389321 1.270037 1.325806 1.414708
Pattern_4 1.323710 1.221967 1.053000 1.067438 1.073049 0.955495
Pattern_4 0.871613 0.741737 0.656258 0.743180 0.627279 0.672377
Pattern_4 0.608847 0.669620 0.720601 0.799640 0.794240 0.936177
Pattern_4 1.044890 1.100255 1.135049 1.385933 1.340738 1.415182
Pattern_4 1.354105 1.355152 1.509552 1.413495 1.470574 1.421582
Pattern_4 1.411787 1.356823 1.246409 1.206317 1.255584 1.189219
Pattern_4 1.189237 1.075878 1.182806 1.179137 1.192671 1.226829
Pattern_4 1.216530 1.266938 1.385412 1.342939 1.261667 1.319952
Pattern_4 1.238503 1.202055 1.125400 1.146897 1.028597 0.920359
Pattern_4 0.902799 0.779351 0.764344 0.626556 0.583910 0.630061
Pattern_4 0.612742 0.662780 0.645928 0.759207 0.872562 1.037593
Pattern_4 1.024644 1.083312 1.181384 1.304846 1.331502 1.447701
Pattern_4 1.420732 1.524037 1.442088 1.395871 1.380552 1.290378
Pattern_4 1.360561 1.333289 1.345888 1.337763 1.269148 1.182202
Pattern_4 1.340197 1.146968 1.096141 1.293071 1.180438 1.220009
Pattern_4 1.307822 1.304606 1.220252 1.353493 1.193796 1.276424
Pattern_4 1.205944 1.308502 1.130452 1.140849 0.994480 0.950055
Pattern_4 0.903871 0.843097 0.737254 0.671634 0.678088 0.636182
Pattern_4 0.651087 0.668926 0.745001 0.784657 0.865753 1.033415
Pattern_4 1.222666 1.268576 1.336190 1.423619 1.417003 1.662249
Pattern_4 1.505524 1.584079 1.570342 1.546493 1.539952 1.602998
Pattern_4 1.495066 1.393267 1.365670 1.291690 1.307800 1.219490
Pattern_4 1.227073 1.476524 1.191285 1.220466 1.256204 1.218720
Pattern_4 1.147090 1.225053 1.270432 1.327393 1.194700 1.339889
Pattern_4 1.256685 1.205353 1.078501 1.153246 1.090703 0.937786
Pattern_4 0.980372 0.824552 0.750725 0.785212 0.754653 0.702263
Pattern_4 0.641581 0.621848 0.651375 0.705889 0.757485 0.799167
Pattern_4 0.866414 0.954207 1.054181 1.111711 1.200364 1.238906
Pattern_4 1.310593 1.376590 1.346207 1.458559 1.322086 1.489610
Pattern_4 1.447015 1.421609 1.274489 1.211247 1.248851 1.256870
Pattern_4 1.356640 1.171122 1.367469 1.209248 1.253393 1.223578
Pattern_4 1.267656 1.218955 1.222119 1.244851 1.279347 1.247799
Pattern_4 1.164361 1.167303 1.123058 0.972540 0.924179 0.886070
Pattern_4 0.849948 0.794054 0.758459 0.723586 0.764412 0.654878
Pattern_4 0.629321 0.662239 0.632192 0.631386 0.728424 0.733988
Pattern_4 0.793851 0.902960 0.878828 0.968274 1.050636 1.087964
Pattern_4 1.340499 1.123163 1.248053 1.339302 1.434269 1.193539
Pattern_4 1.221105 1.308070 1.295182 1.289064 1.249902 1.113190
Pattern_4 1.239474 1.172786 1.178955 1.052876 1.186578 1.122115
Pattern_4 1.069859 1.197087 1.321416 1.301735 1.238664 1.135690
Pattern_4 1.128780 1.182346 1.148774 1.039406 0.944654 0.982633
Pattern_4 0.900554 0.774590 0.780143 0.678334 0.646198 0.543680
Pattern_4 0.645672 0.642548 0.729146 0.784944 0.822323 0.864611
Pattern_4 1.015973 1.065134 1.158229 1.235880 1.418930 1.515575
Pattern_4 1.412031 1.412632 1.526622 1.563815 1.520727 1.504732
Pattern_4 1.391396 1.364763 1.240919 1.236038 1.125393 1.288441
Pattern_4 1.035871 1.111785 1.172998 1.175185 1.177155 1.155845
Pattern_4 1.273585 1.292271 1.219834 1.139731 1.287217 1.384042
Pattern_4 1.383949 1.345953 1.164721 1.298186 1.138438 1.024036
Pattern_4 0.898610 0.795615 0.754979 0.747326 0.668071 0.661357
Pattern_4 0.619719 0.648961 0.721112 0.719177 0.841198 0.891734
Pattern_4 1.015844 1.211543 1.313859 1.167012 1.212633 1.421787
Pattern_4 1.385022 1.439551 1.356211 1.455764 1.428970 1.541289
Pattern_4 1.349855 1.201026 1.374246 1.223768 1.206640 1.156979
Pattern_4 1.264721 1.207256 1.204048 1.083491 1.289201 1.326560
Pattern_4 1.352869 1.324596 1.386777 1.395663 1.280202 1.346282
Pattern_4 1.284014 1.225036 1.189425 1.165718 1.107078 0.935279
Pattern_4 0.845697 0.755955 0.689551 0.692577 0.636824 0.592729
Pattern_4 0.661078 0.720339 0.740490 0.829756 0.819463 0.915021
Pattern_4 0.998070 1.162548 1.290311 1.217153 1.414316 1.312504
Pattern_4 1.443298 1.412204 1.496790 1.445575 1.438004 1.507096
Pattern_4 1.460610 1.440655 1.226902 1.305539 1.177335 1.193103
Pattern_4 1.223465 1.182593 1.212793 1.296374 1.241226 1.293682
Pattern_4 1.288504 1.141440 1.288181 1.403106 1.391502 1.295312
Pattern_4 1.298934 1.260596 1.192891 1.052197 1.059971 0.965404
Pattern_4 0.936079 0.806685 0.722645 0.707911 0.703079 0.636390
Pattern_4 0.637305 0.678091 0.702580 0.862192 0.880463 0.985173
Pattern_4 1.101223 1.157459 1.252539 1.353116 1.317873 1.294006
Pattern_4 1.442276 1.401128 1.452531 1.292416 1.462118 1.402140
Pattern_4 1.413367 1.223268 1.219870 1.334047 1.171314 1.168159
Pattern_4 1.303629 1.173266 1.252313 1.175070 1.251542 1.231339
Pattern_4 1.275817 1.351564 1.274231 1.340514 1.344757 1.272613
Pattern_4 1.320162 1.294090 1.257016 1.122477 1.060432 1.034770
Pattern_4 0.883817 0.774637 0.706045 0.744876 0.708253 0.674658
Pattern_4 0.588999 0.690972 0.681413 0.815332 0.932504 1.099555
Pattern_4 1.054064 1.154902 1.336748 1.459061 1.377562 1.549966
Pattern_4 1.608505 1.622199 1.694594 1.525285 1.521794 1.383665
Pattern_4 1.536711 1.476871 1.284743 1.192950 1.321873 1.242955
Pattern_4 1.264177 1.151307 1.300796 1.287812 1.151881 1.232975
Pattern_4 1.441291 1.332476 1.292251 1.391471 1.261852 1.276028
Pattern_4 1.179150 1.260757 1.052899 1.095025 1.063519 0.970496