; Filename: ../LeakDB/CCWI-WDSA2018/Dataset_Generator/networks/Hanoi_CMH.inp
; WNTR: 0.3.1
; Created: 2022-05-13 10:13:24
[TITLE]

[JUNCTIONS]
;ID                      Elevation       Demand Pattern                 
 2                                 30          247.22 Pattern_2                  ;
 3                                 30          236.11 Pattern_3                  ;
 4                                 30           36.11 Pattern_4                  ;
 5                                 30          201.39 Pattern_5                  ;
 6                                 30          279.17 Pattern_6                  ;
 7                                 30             375 Pattern_7                  ;
 8                                 30          152.78 Pattern_8                  ;
 9                                 30          145.83 Pattern_9                  ;
 10                                30          145.83 Pattern_10                 ;
 11                                30          138.89 Pattern_11                 ;
 12                                30          155.56 Pattern_12                 ;
 13                                30          261.11 Pattern_13                 ;
 14                                30          170.83 Pattern_14                 ;
 15                                30           77.78 Pattern_15                 ;
 16                                30           86.11 Pattern_16                 ;
 17                                30          240.28 Pattern_17                 ;
 18                                30          373.61 Pattern_18                 ;
 19                                30           16.67 Pattern_19                 ;
 20                                30          354.17 Pattern_20                 ;
 21                                30          258.33 Pattern_21                 ;
 22                                30          134.72 Pattern_22                 ;
 23                                30          290.28 Pattern_23                 ;
 24                                30          227.78 Pattern_24                 ;
 25                                30           47.22 Pattern_25                 ;
 26                                30             250 Pattern_26                 ;
 27                                30          102.78 Pattern_27                 ;
 28                                30           80.56 Pattern_28                 ;
 29                                30             100 Pattern_29                 ;
 30                                30             100 Pattern_30                 ;
 31                                30           29.17 Pattern_31                 ;
 32                                30          223.61 Pattern_32                 ;

[RESERVOIRS]
;ID                                   Head                  Pattern
 1                                100                            ;

[TANKS]
;ID                              Elevation           Init Level            Min Level            Max Level             Diameter           Min Volume Volume Curve         Overflow            

[PIPES]
;ID                   Node1                Node2                              Length             Diameter            Roughness           Minor Loss               Status
 1                    1                    2                                100            1016             130               0                 Open   ;
 2                    2                    3                               1350            1016             130               0                 Open   ;
 3                    3                    4                                900            1016             130               0                 Open   ;
 4                    4                    5                               1150            1016             130               0                 Open   ;
 5                    5                    6                               1450            1016             130               0                 Open   ;
 6                    6                    7                                450            1016             130               0                 Open   ;
 7                    7                    8                                850            1016             130               0                 Open   ;
 8                    8                    9                                850            1016             130               0                 Open   ;
 9                    9                    10                               800            1016             130               0                 Open   ;
 10                   10                   11                               950             762             130               0                 Open   ;
 11                   11                   12                              1200             762             130               0                 Open   ;
 12                   12                   13                              3500           609.6             130               0                 Open   ;
 13                   10                   14                               800           406.4             130               0                 Open   ;
 14                   14                   15                               500           406.4             130               0                 Open   ;
 15                   15                   16                               550           304.8             130               0                 Open   ;
 16                   17                   16                              2730           406.4             130               0                 Open   ;
 17                   17                   18                              1750             508             130               0                 Open   ;
 18                   18                   19                               800           609.6             130               0                 Open   ;
 19                   19                   3                                400           609.6             130               0                 Open   ;
 20                   3                    20                              2200            1016             130               0                 Open   ;
 21                   20                   21                              1500             508             130               0                 Open   ;
 22                   21                   22                               500           304.8             130               0                 Open   ;
 23                   20                   23                              2650            1016             130               0                 Open   ;
 24                   23                   24                              1230             762             130               0                 Open   ;
 25                   24                   25                              1300             762             130               0                 Open   ;
 26                   26                   25                               850             508             130               0                 Open   ;
 27                   27                   26                               300           304.8             130               0                 Open   ;
 28                   16                   27                               750           304.8             130               0                 Open   ;
 29                   23                   28                              1500           406.4             130               0                 Open   ;
 30                   28                   29                              2000           406.4             130               0                 Open   ;
 31                   29                   30                              1600           304.8             130               0                 Open   ;
 32                   30                   31                               150           304.8             130               0                 Open   ;
 33                   32                   31                               860           406.4             130               0                 Open   ;
 34                   25                   32                               950             508             130               0                 Open   ;

[PUMPS]
;ID                   Node1                Node2                Properties          

[VALVES]
;ID                   Node1                Node2                            Diameter Type              Setting           Minor Loss

[TAGS]
;type      name       tag       

[DEMANDS]
;ID        Demand     Pattern   

[STATUS]
;ID        Setting   
[PATTERNS]
;ID        Multipliers

Pattern_2 0.794121 0.647718 0.664816 0.694793 0.588226 0.636575
Pattern_2 0.509547 0.495577 0.517298 0.530359 0.543085 0.596439
Pattern_2 0.652225 0.684937 0.877421 0.829253 0.939458 1.055756
Pattern_2 1.134337 1.175255 1.365328 1.289522 1.330088 1.342166
Pattern_2 1.369919 1.410630 1.320609 1.209220 1.197041 1.167453
Pattern_2 1.195067 1.233579 1.122828 1.133973 1.166350 1.186467
Pattern_2 1.209024 1.232458 1.172673 1.226880 1.046833 1.251053
Pattern_2 1.256879 1.011206 1.056999 0.955224 0.882754 0.886332
Pattern_2 0.744369 0.666303 0.583579 0.543186 0.492579 0.479864
Pattern_2 0.476307 0.540026 0.535114 0.612139 0.770620 0.806504
Pattern_2 0.826673 0.974634 1.145091 1.311691 1.520224 1.448472
Pattern_2 1.517732 1.662540 1.626936 1.622551 1.626226 1.519132
Pattern_2 1.502635 1.404819 1.485626 1.256260 1.286253 1.248994
Pattern_2 1.227321 1.105478 1.074610 1.061273 1.160523 1.223482
Pattern_2 1.238076 1.211782 1.317844 1.341642 1.303431 1.088230
Pattern_2 1.303260 1.285883 1.194180 1.219262 1.094762 0.885188
Pattern_2 0.820285 0.694229 0.630112 0.541266 0.503862 0.472226
Pattern_2 0.517723 0.518176 0.545979 0.625470 0.670500 0.777251
Pattern_2 1.024403 1.099642 1.106036 1.214671 1.309115 1.414657
Pattern_2 1.466926 1.581963 1.519792 1.514199 1.535234 1.459085
Pattern_2 1.350856 1.455206 1.327810 1.203258 1.292864 1.204309
Pattern_2 1.191881 1.234248 1.199511 1.077851 1.281300 1.227839
Pattern_2 1.310571 1.275493 1.367477 1.444337 1.214329 1.378199
Pattern_2 1.347871 1.209739 1.166205 1.134329 0.972480 0.943735
Pattern_2 0.754020 0.617964 0.633222 0.544394 0.487001 0.501015
Pattern_2 0.537253 0.505212 0.595258 0.645937 0.796297 0.852832
Pattern_2 0.916169 0.949206 1.180988 1.249068 1.335685 1.439745
Pattern_2 1.562541 1.515207 1.594075 1.584277 1.528668 1.672855
Pattern_2 1.381713 1.494689 1.178839 1.417074 1.352224 1.241465
Pattern_2 1.315849 1.322163 1.298499 1.190204 1.192547 1.239522
Pattern_2 1.220366 1.302811 1.394095 1.307470 1.459280 1.329771
Pattern_2 1.319951 1.198965 1.211386 0.996498 0.946440 0.969333
Pattern_2 0.802457 0.711226 0.631033 0.532569 0.558180 0.471191
Pattern_2 0.504831 0.484717 0.577334 0.657706 0.812828 0.947883
Pattern_2 1.133448 1.149923 1.226029 1.300232 1.528432 1.510307
Pattern_2 1.539913 1.506615 1.511036 1.531140 1.505788 1.551811
Pattern_2 1.460616 1.410693 1.264557 1.312767 1.236904 1.235344
Pattern_2 1.164799 1.188473 1.262262 1.278889 1.324394 1.345431
Pattern_2 1.331584 1.314752 1.258114 1.326951 1.353216 1.260799
Pattern_2 1.227592 1.131418 1.121087 1.045588 1.042547 0.912425
Pattern_2 0.885123 0.726825 0.698312 0.580511 0.467804 0.496566
Pattern_2 0.503449 0.538535 0.615725 0.718968 0.862358 0.989057
Pattern_2 1.089692 1.159141 1.372456 1.588992 1.564356 1.744215
Pattern_2 1.812431 1.712912 1.830074 1.659608 1.644711 1.704166
Pattern_2 1.656265 1.450205 1.407006 1.412622 1.299725 1.269573
Pattern_2 1.362435 1.289666 1.215561 1.265364 1.322382 1.280872
Pattern_2 1.308584 1.321284 1.446487 1.522745 1.405198 1.206464
Pattern_2 1.219463 1.171955 1.133979 0.974550 1.095839 0.952789
Pattern_2 0.870745 0.819716 0.795505 0.662674 0.625669 0.585824
Pattern_2 0.520246 0.505210 0.528261 0.572392 0.670293 0.713335
Pattern_2 0.916413 0.939895 0.963587 1.115940 1.188139 1.299745
Pattern_2 1.247151 1.377453 1.405031 1.541616 1.355458 1.550058
Pattern_2 1.428971 1.436124 1.459668 1.429040 1.279657 1.312212
Pattern_2 1.451140 1.307809 1.410601 1.342453 1.322159 1.381304
Pattern_2 1.415380 1.261856 1.234278 1.248983 1.232703 1.108725
Pattern_2 1.121717 1.126629 0.990176 0.907807 0.906980 0.785422
Pattern_2 0.793280 0.734708 0.728497 0.636904 0.580887 0.549232
Pattern_2 0.548854 0.516919 0.560559 0.568818 0.597234 0.677508
Pattern_2 0.658694 0.765694 0.770647 0.967385 1.042859 1.071574
Pattern_2 1.244534 1.203551 1.301852 1.286225 1.356268 1.301680
Pattern_2 1.405645 1.452287 1.234950 1.348630 1.188507 1.160113
Pattern_2 1.253271 1.098796 1.181933 1.241402 1.204601 1.285161
Pattern_2 1.204308 1.374898 1.201373 1.304471 1.281074 1.256693
Pattern_2 1.140338 1.106472 1.086503 1.008262 0.925079 0.859691
Pattern_2 0.784528 0.662867 0.632368 0.502758 0.477259 0.495359
Pattern_2 0.531298 0.473776 0.594062 0.616499 0.714775 0.821134
Pattern_2 0.879552 0.967460 1.172449 1.369803 1.434171 1.432722
Pattern_2 1.484826 1.500422 1.679139 1.491457 1.607423 1.591313
Pattern_2 1.582528 1.433077 1.496877 1.300767 1.301628 1.260023
Pattern_2 1.227538 1.134297 1.078109 1.164412 1.145401 1.131652
Pattern_2 1.220857 1.277427 1.252813 1.342466 1.273375 1.313922
Pattern_2 1.292704 1.201611 1.302196 1.124214 0.949185 0.913568
Pattern_2 0.817117 0.703890 0.619863 0.548455 0.532439 0.507432
Pattern_2 0.535057 0.554490 0.634037 0.594897 0.711587 0.872666
Pattern_2 0.982875 1.086524 1.174388 1.191103 1.410859 1.448273
Pattern_2 1.316205 1.512202 1.504053 1.623424 1.492454 1.542297
Pattern_2 1.480020 1.463679 1.364445 1.217762 1.338634 1.337107
Pattern_2 1.169084 1.225333 1.252241 1.218626 1.234567 1.340952
Pattern_2 1.380528 1.395637 1.412198 1.176818 1.382704 1.440068
Pattern_2 1.377320 1.158225 1.180873 1.116017 1.044903 0.836917
Pattern_2 0.753590 0.648171 0.617855 0.586652 0.477801 0.482247
Pattern_2 0.500086 0.557520 0.600690 0.654773 0.806698 0.872644
Pattern_2 1.051796 1.176596 1.324197 1.248081 1.427001 1.608621
Pattern_2 1.557521 1.449610 1.568314 1.648315 1.703907 1.662431
Pattern_2 1.624506 1.397882 1.466316 1.307127 1.458065 1.311774
Pattern_2 1.214828 1.206841 1.394642 1.170920 1.272623 1.146608
Pattern_2 1.273642 1.364772 1.504332 1.431802 1.436559 1.238645
Pattern_2 1.235045 1.318171 1.281120 1.115058 0.988484 0.926424
Pattern_2 0.813070 0.769654 0.645571 0.616214 0.541780 0.451339
Pattern_2 0.502306 0.544626 0.554734 0.645736 0.798883 0.902768
Pattern_2 1.004985 1.135636 1.209231 1.412109 1.416389 1.449053
Pattern_2 1.619318 1.587121 1.644933 1.639382 1.294468 1.467312
Pattern_2 1.530049 1.438020 1.322622 1.308559 1.307360 1.270855
Pattern_2 1.217341 1.295528 1.318625 1.288480 1.282211 1.402161
Pattern_2 1.234478 1.388202 1.288177 1.217122 1.290321 1.465748
Pattern_2 1.246774 1.294591 1.289442 1.179677 1.171194 0.908378
Pattern_2 0.871535 0.709608 0.656995 0.596869 0.498772 0.513887
Pattern_2 0.513541 0.549437 0.677345 0.695253 0.833630 0.959687
Pattern_2 1.122976 1.246341 1.447383 1.489079 1.532772 1.720328
Pattern_2 1.816181 1.667156 1.839184 1.788160 1.673310 1.601555
Pattern_2 1.642935 1.520995 1.614561 1.389402 1.445659 1.426420
Pattern_2 1.282185 1.396550 1.265642 1.325608 1.326898 1.294706
Pattern_2 1.305751 1.288035 1.308910 1.230229 1.205817 1.255603
Pattern_2 1.268850 1.173144 1.144707 1.123951 0.993110 0.926618
Pattern_2 0.859260 0.802674 0.724858 0.677079 0.624882 0.561771
Pattern_2 0.609732 0.533220 0.608726 0.610946 0.708824 0.668067
Pattern_2 0.805768 0.958367 1.009464 1.267532 1.195680 1.398601
Pattern_2 1.366009 1.363070 1.573181 1.562367 1.644395 1.409561
Pattern_2 1.548489 1.412985 1.491801 1.396562 1.333107 1.367899
Pattern_2 1.414726 1.448037 1.395411 1.249557 1.454335 1.398841
Pattern_2 1.232416 1.240259 1.304471 1.282721 1.211064 1.224612
Pattern_2 1.164517 1.026277 1.004984 0.939217 0.924754 0.885926
Pattern_2 0.822710

Pattern_3 0.739697 0.700930 0.719759 0.611707 0.539808 0.498131
Pattern_3 0.509149 0.466258 0.483991 0.519550 0.494792 0.595787
Pattern_3 0.636282 0.663605 0.764850 0.892407 0.886566 1.143370
Pattern_3 1.152947 1.171923 1.214728 1.230510 1.405128 1.360191
Pattern_3 1.312555 1.231245 1.305643 1.286690 1.283433 1.293624
Pattern_3 1.016133 1.178818 1.200895 1.100410 1.205433 1.175432
Pattern_3 1.271614 1.176281 1.267398 1.284800 1.272521 1.310486
Pattern_3 1.106370 1.243237 1.132140 0.989064 0.892112 0.849122
Pattern_3 0.739459 0.601038 0.572667 0.472903 0.447444 0.449928
Pattern_3 0.418397 0.439437 0.477857 0.611113 0.719378 0.791914
Pattern_3 0.927341 1.093203 1.160077 1.342456 1.335316 1.469790
Pattern_3 1.425680 1.638492 1.609138 1.546225 1.468694 1.551282
Pattern_3 1.472840 1.469007 1.394586 1.237031 1.228366 1.221246
Pattern_3 1.105368 1.068620 1.093745 1.104170 1.034624 1.235764
Pattern_3 1.282008 1.313695 1.271649 1.335637 1.373881 1.409212
Pattern_3 1.350448 1.230202 1.176779 1.127568 1.019425 0.911493
Pattern_3 0.848661 0.699166 0.557817 0.541105 0.458350 0.419117
Pattern_3 0.388197 0.451181 0.490670 0.597635 0.711693 0.732038
Pattern_3 0.914135 1.039207 1.090420 1.236436 1.348466 1.497357
Pattern_3 1.513996 1.563798 1.513354 1.655622 1.509580 1.563245
Pattern_3 1.508544 1.449163 1.346970 1.286616 1.311101 1.210514
Pattern_3 1.130296 1.171877 1.117604 1.108639 1.314429 1.100354
Pattern_3 1.417442 1.406851 1.359745 1.373537 1.458217 1.480950
Pattern_3 1.416981 1.403899 1.255048 1.042146 1.032312 0.916097
Pattern_3 0.777890 0.653097 0.582047 0.473088 0.437868 0.416622
Pattern_3 0.435853 0.497000 0.548975 0.632706 0.782978 0.870299
Pattern_3 0.898981 1.020168 1.234020 1.269075 1.420398 1.399537
Pattern_3 1.568070 1.515207 1.647389 1.365012 1.508821 1.499537
Pattern_3 1.400153 1.383762 1.476341 1.288711 1.308141 1.283321
Pattern_3 1.188373 1.227201 1.285730 1.274967 1.313291 1.259560
Pattern_3 1.322799 1.380352 1.398486 1.353962 1.390820 1.368122
Pattern_3 1.378718 1.327125 1.286027 1.061798 1.082233 0.871882
Pattern_3 0.811302 0.653403 0.565204 0.496135 0.425575 0.419862
Pattern_3 0.442043 0.493793 0.450899 0.646072 0.710514 0.868704
Pattern_3 0.986371 1.040155 1.215160 1.311002 1.317693 1.397973
Pattern_3 1.605456 1.619862 1.552641 1.451907 1.440957 1.305438
Pattern_3 1.257080 1.315390 1.187272 1.261739 1.330956 1.111771
Pattern_3 1.261023 1.225219 1.233868 1.173061 1.340201 1.214340
Pattern_3 1.476561 1.412744 1.328149 1.505283 1.334359 1.354776
Pattern_3 1.345566 1.246017 1.177438 1.097050 0.990605 1.003106
Pattern_3 0.814635 0.672723 0.634497 0.516175 0.478295 0.469500
Pattern_3 0.448454 0.428354 0.587867 0.670614 0.813163 0.873348
Pattern_3 1.049937 1.214777 1.374468 1.447769 1.627339 1.662478
Pattern_3 1.719702 1.868504 1.729446 1.615568 1.882909 1.654682
Pattern_3 1.375084 1.442143 1.459817 1.346435 1.217850 1.202141
Pattern_3 1.296129 1.223860 1.267699 1.365919 1.268762 1.300783
Pattern_3 1.478281 1.279868 1.329920 1.473176 1.446644 1.236830
Pattern_3 1.238278 1.328276 1.147043 1.041699 1.077376 1.022963
Pattern_3 0.835200 0.837050 0.767760 0.618444 0.611829 0.525349
Pattern_3 0.513760 0.454768 0.522606 0.563282 0.589879 0.697203
Pattern_3 0.700455 0.928793 1.001125 1.145478 1.258478 1.160129
Pattern_3 1.366399 1.377418 1.441896 1.402263 1.431735 1.367348
Pattern_3 1.427563 1.434430 1.329085 1.277218 1.249391 1.290980
Pattern_3 1.412069 1.215437 1.300952 1.293327 1.289682 1.293186
Pattern_3 1.268629 1.316554 1.294363 1.326171 1.151472 1.154698
Pattern_3 1.191021 1.142962 1.000314 0.962641 0.885927 0.828555
Pattern_3 0.774186 0.730704 0.668681 0.614039 0.561547 0.495954
Pattern_3 0.484916 0.476209 0.463439 0.458832 0.523529 0.577025
Pattern_3 0.645649 0.697169 0.812483 0.821328 0.998331 1.043888
Pattern_3 1.171868 1.306207 1.298044 1.299568 1.219232 1.407764
Pattern_3 1.338594 1.304149 1.430199 1.371010 1.211995 1.140651
Pattern_3 1.184240 1.085666 1.206976 1.176609 1.127710 1.067305
Pattern_3 1.287320 1.218932 1.246642 1.309220 1.226735 1.302209
Pattern_3 1.259857 1.172077 1.103737 1.076218 1.005008 0.797166
Pattern_3 0.723891 0.617194 0.565722 0.534219 0.443831 0.443535
Pattern_3 0.366717 0.456596 0.500496 0.649655 0.697730 0.867243
Pattern_3 0.876257 0.992449 1.199724 1.262645 1.446815 1.419763
Pattern_3 1.566692 1.556435 1.635508 1.622864 1.677159 1.543208
Pattern_3 1.489644 1.480953 1.272687 1.353350 1.110991 1.137069
Pattern_3 1.112446 1.125179 1.138645 1.127709 1.207148 1.264092
Pattern_3 1.273477 1.279917 1.452646 1.330038 1.474877 1.393740
Pattern_3 1.499905 1.322667 1.242584 1.063581 1.067099 0.914226
Pattern_3 0.799674 0.729810 0.619528 0.521698 0.451399 0.437973
Pattern_3 0.401914 0.480938 0.561029 0.630403 0.703363 0.773553
Pattern_3 0.913124 1.103894 1.190089 1.312332 1.196526 1.486211
Pattern_3 1.529818 1.616116 1.571651 1.518460 1.518113 1.563191
Pattern_3 1.437811 1.284835 1.468719 1.327159 1.207906 1.099353
Pattern_3 1.238635 1.062312 1.225564 1.188290 1.261321 1.355458
Pattern_3 1.264604 1.367743 1.415553 1.202588 1.561723 1.301180
Pattern_3 1.340410 1.413634 1.095029 1.152355 1.038378 0.918538
Pattern_3 0.709519 0.630658 0.592261 0.499995 0.470663 0.411743
Pattern_3 0.424056 0.468708 0.576324 0.642580 0.720943 0.776538
Pattern_3 0.955075 1.135035 1.217392 1.268044 1.516864 1.348027
Pattern_3 1.711641 1.522301 1.733031 1.442236 1.722312 1.679327
Pattern_3 1.500988 1.296913 1.432921 1.418515 1.369545 1.205334
Pattern_3 1.204744 1.180431 1.176040 1.243872 1.375340 1.474927
Pattern_3 1.182445 1.407494 1.343378 1.496765 1.424155 1.458977
Pattern_3 1.324827 1.449435 1.211968 1.128524 0.968502 0.963055
Pattern_3 0.771484 0.792966 0.598883 0.522680 0.457749 0.418033
Pattern_3 0.458916 0.493739 0.568439 0.662329 0.744722 0.882792
Pattern_3 1.030107 1.064496 1.251787 1.210085 1.516278 1.436874
Pattern_3 1.588312 1.573343 1.620908 1.585170 1.548256 1.464080
Pattern_3 1.399586 1.466422 1.304960 1.384718 1.200681 1.194130
Pattern_3 1.226476 1.227915 1.218801 1.285351 1.254718 1.211922
Pattern_3 1.455542 1.291144 1.452189 1.586192 1.375466 1.481964
Pattern_3 1.360709 1.416612 1.215004 1.170224 1.082305 0.897754
Pattern_3 0.775284 0.641370 0.626735 0.527200 0.495449 0.460844
Pattern_3 0.473774 0.554405 0.594465 0.664460 0.785689 0.955220
Pattern_3 1.120110 1.224861 1.558023 1.543827 1.559500 1.774572
Pattern_3 1.814226 1.645236 2.005405 1.637700 1.931147 1.712807
Pattern_3 1.586684 1.589498 1.584532 1.432692 1.485509 1.410348
Pattern_3 1.268770 1.234077 1.349581 1.325405 1.361077 1.390137
Pattern_3 1.395282 1.451944 1.375893 1.302840 1.436217 1.307400
Pattern_3 1.374626 1.124146 1.131268 1.150262 1.017445 0.954334
Pattern_3 0.875662 0.793452 0.748073 0.604814 0.566692 0.543071
Pattern_3 0.497209 0.453665 0.519019 0.555896 0.620472 0.661363
Pattern_3 0.813833 0.906690 1.000434 1.051430 1.169284 1.354458
Pattern_3 1.473540 1.363171 1.351621 1.468956 1.605867 1.499435
Pattern_3 1.430782 1.450473 1.352078 1.359864 1.288602 1.290711
Pattern_3 1.319196 1.470658 1.268050 1.272935 1.313615 1.336421
Pattern_3 1.362320 1.377079 1.471841 1.277650 1.347634 1.237852
Pattern_3 1.256919 1.235042 1.050243 0.999820 0.895292 0.867266
Pattern_3 0.768991

Pattern_4 0.745824 0.662527 0.628120 0.591011 0.591409 0.527986
Pattern_4 0.500320 0.509223 0.533509 0.526791 0.600282 0.635266
Pattern_4 0.645267 0.704731 0.754133 0.891202 0.953349 1.068198
Pattern_4 1.046820 1.131480 1.261323 1.359849 1.333422 1.262720
Pattern_4 1.370324 1.309877 1.383480 1.401762 1.279301 1.245368
Pattern_4 1.239688 1.247937 1.135623 1.227781 1.226863 1.167217
Pattern_4 1.255490 1.305290 1.209596 1.246532 1.168144 1.324972
Pattern_4 1.203113 1.156925 1.090204 0.994882 0.879584 0.810049
Pattern_4 0.710634 0.650800 0.572611 0.499633 0.498569 0.441816
Pattern_4 0.494205 0.491802 0.551953 0.656790 0.743809 0.866337
Pattern_4 0.853606 1.038108 1.185521 1.342884 1.318112 1.389961
Pattern_4 1.621472 1.628518 1.716874 1.431756 1.542895 1.529653
Pattern_4 1.352177 1.410356 1.313354 1.480297 1.260893 1.233543
Pattern_4 1.173589 1.140040 1.204012 1.102364 1.255898 1.216850
Pattern_4 1.218459 1.256782 1.318555 1.424999 1.364628 1.421487
Pattern_4 1.428683 1.290316 1.237133 1.116076 1.037992 0.874880
Pattern_4 0.781505 0.711369 0.562235 0.542862 0.496149 0.448471
Pattern_4 0.466412 0.500470 0.559088 0.645095 0.698884 0.805938
Pattern_4 0.899294 0.981975 1.151717 1.188086 1.319815 1.494330
Pattern_4 1.508652 1.549308 1.576959 1.610317 1.665916 1.659979
Pattern_4 1.439718 1.346995 1.401916 1.228685 1.272494 1.139250
Pattern_4 1.165688 1.119275 1.114826 1.176659 1.307362 1.211672
Pattern_4 1.282456 1.330831 1.412651 1.441364 1.451986 1.335956
Pattern_4 1.220938 1.215148 1.242038 1.056345 0.947595 0.930440
Pattern_4 0.743548 0.678854 0.607888 0.532119 0.459722 0.453751
Pattern_4 0.485314 0.514731 0.526576 0.644033 0.738665 0.826014
Pattern_4 0.903406 1.077471 1.233178 1.301317 1.337705 1.464920
Pattern_4 1.608003 1.552223 1.500007 1.658065 1.530432 1.575561
Pattern_4 1.527549 1.417015 1.523332 1.444022 1.442631 1.346266
Pattern_4 1.255959 1.245414 1.283047 1.137924 1.387538 1.167567
Pattern_4 1.406908 1.283698 1.389828 1.259172 1.457158 1.411537
Pattern_4 1.204342 1.244426 1.121377 1.085945 1.024544 0.866666
Pattern_4 0.778767 0.647911 0.640816 0.548190 0.493265 0.442829
Pattern_4 0.442060 0.524625 0.585617 0.637322 0.785865 0.857163
Pattern_4 1.004740 1.013229 1.208570 1.262650 1.307268 1.327160
Pattern_4 1.464324 1.562972 1.460281 1.555523 1.478203 1.455982
Pattern_4 1.317628 1.258216 1.284561 1.343187 1.232131 1.366992
Pattern_4 1.269741 1.191322 1.235261 1.243850 1.425254 1.285805
Pattern_4 1.297883 1.270253 1.297534 1.401299 1.348567 1.303052
Pattern_4 1.258430 1.332131 1.226246 1.099855 1.067143 0.937983
Pattern_4 0.770116 0.772681 0.579031 0.616765 0.523643 0.501340
Pattern_4 0.498258 0.604446 0.645297 0.715195 0.839155 1.006799
Pattern_4 1.027116 1.330519 1.378628 1.564134 1.469406 1.591078
Pattern_4 1.734929 1.721825 1.889901 1.733940 1.643246 1.664762
Pattern_4 1.581102 1.394235 1.579884 1.317591 1.302507 1.387153
Pattern_4 1.335998 1.379623 1.276990 1.259787 1.298532 1.358945
Pattern_4 1.330436 1.418437 1.501409 1.414353 1.424651 1.232051
Pattern_4 1.292781 1.311832 1.001491 1.072824 1.028916 0.911414
Pattern_4 0.979498 0.726385 0.707689 0.683929 0.632171 0.542302
Pattern_4 0.558116 0.514533 0.578909 0.589996 0.587029 0.709558
Pattern_4 0.828117 0.966080 1.018883 1.082200 1.270655 1.326221
Pattern_4 1.215404 1.362936 1.460790 1.381913 1.425028 1.352162
Pattern_4 1.396936 1.380880 1.433042 1.440706 1.371063 1.389870
Pattern_4 1.307338 1.307637 1.304670 1.265904 1.446848 1.366419
Pattern_4 1.314852 1.316112 1.374031 1.324315 1.230714 1.219839
Pattern_4 1.143429 1.032645 0.980803 0.989121 0.877489 0.817887
Pattern_4 0.681329 0.631837 0.693129 0.595487 0.644815 0.518413
Pattern_4 0.545501 0.508434 0.528483 0.552242 0.556034 0.607738
Pattern_4 0.681833 0.710939 0.796985 0.953709 0.998661 1.144684
Pattern_4 1.051420 1.165554 1.295987 1.395525 1.389549 1.551851
Pattern_4 1.450707 1.529313 1.266270 1.428649 1.265738 1.193462
Pattern_4 1.260263 1.138578 1.182812 1.266431 1.193716 1.199069
Pattern_4 1.253205 1.306040 1.255167 1.325251 1.286446 1.249322
Pattern_4 1.245175 1.111997 1.048592 0.940005 0.947799 0.895024
Pattern_4 0.768665 0.635694 0.558432 0.520178 0.483212 0.480017
Pattern_4 0.471224 0.504628 0.571037 0.662039 0.733216 0.917511
Pattern_4 1.023008 1.034702 1.208826 1.353691 1.449035 1.643701
Pattern_4 1.615242 1.537608 1.580842 1.659683 1.574020 1.465189
Pattern_4 1.699937 1.454980 1.485817 1.282456 1.257564 1.317432
Pattern_4 1.118292 1.260938 1.086365 1.137974 1.242900 1.213661
Pattern_4 1.350441 1.361472 1.358305 1.308407 1.379778 1.233637
Pattern_4 1.214754 1.286393 1.316538 1.191591 1.031650 0.937479
Pattern_4 0.815477 0.684762 0.574141 0.554222 0.471388 0.493771
Pattern_4 0.478946 0.553550 0.535729 0.613559 0.775463 0.801299
Pattern_4 0.986758 1.091022 1.136758 1.369422 1.377365 1.435176
Pattern_4 1.456217 1.730382 1.396770 1.503999 1.605392 1.521707
Pattern_4 1.654469 1.466309 1.351853 1.361072 1.244011 1.205495
Pattern_4 1.207604 1.278486 1.258872 1.239895 1.234709 1.237933
Pattern_4 1.304245 1.372462 1.321621 1.416345 1.406845 1.397563
Pattern_4 1.416331 1.304133 1.253460 1.028475 1.037416 0.909513
Pattern_4 0.841133 0.650345 0.622145 0.541307 0.468783 0.496177
Pattern_4 0.493518 0.526685 0.604358 0.617861 0.781633 0.980757
Pattern_4 0.994446 1.117130 1.108722 1.385097 1.384381 1.573641
Pattern_4 1.541695 1.541219 1.797116 1.606388 1.429207 1.591950
Pattern_4 1.445932 1.294722 1.507381 1.428708 1.368170 1.371408
Pattern_4 1.252470 1.294092 1.180342 1.364746 1.272753 1.418895
Pattern_4 1.427089 1.262714 1.430972 1.510775 1.298221 1.319513
Pattern_4 1.300441 1.254656 1.273831 1.096331 1.034696 0.934833
Pattern_4 0.783952 0.727732 0.623303 0.558311 0.511037 0.496566
Pattern_4 0.401644 0.517831 0.554054 0.643484 0.774895 0.887028
Pattern_4 1.106741 1.126498 1.197407 1.319553 1.585116 1.405881
Pattern_4 1.509443 1.661336 1.516148 1.511277 1.418980 1.465485
Pattern_4 1.433636 1.435712 1.337564 1.238984 1.384291 1.200829
Pattern_4 1.362394 1.233672 1.266414 1.423981 1.277320 1.393464
Pattern_4 1.331725 1.337784 1.361179 1.333570 1.405093 1.371751
Pattern_4 1.367047 1.245471 1.184187 1.139351 1.106496 0.987044
Pattern_4 0.740587 0.718139 0.690800 0.535741 0.557469 0.537551
Pattern_4 0.504219 0.556750 0.677624 0.721637 0.851287 0.968172
Pattern_4 1.157839 1.361671 1.414236 1.386718 1.562649 1.614872
Pattern_4 1.722754 1.852204 1.726303 1.784842 1.696619 1.642151
Pattern_4 1.589904 1.518027 1.418963 1.397853 1.409767 1.299002
Pattern_4 1.422834 1.414253 1.398559 1.430200 1.289857 1.344579
Pattern_4 1.455539 1.407068 1.141248 1.421467 1.372045 1.296773
Pattern_4 1.247514 1.245948 1.200332 1.016580 1.039832 0.964710