; Filename: ../LeakDB/CCWI-WDSA2018/Dataset_Generator/networks/Hanoi_CMH.inp
; WNTR: 0.3.1
; Created: 2022-05-11 11:54:27
[TITLE]

[JUNCTIONS]
;ID                      Elevation       Demand Pattern                 
 2                                 30          247.22 Pattern_2                  ;
 3                                 30          236.11 Pattern_3                  ;
 4                                 30           36.11 Pattern_4                  ;
 5                                 30          201.39 Pattern_5                  ;
 6                                 30          279.17 Pattern_6                  ;
 7                                 30             375 Pattern_7                  ;
 8                                 30          152.78 Pattern_8                  ;
 9                                 30          145.83 Pattern_9                  ;
 10                                30          145.83 Pattern_10                 ;
 11                                30          138.89 Pattern_11                 ;
 12                                30          155.56 Pattern_12                 ;
 13                                30          261.11 Pattern_13                 ;
 14                                30          170.83 Pattern_14                 ;
 15                                30           77.78 Pattern_15                 ;
 16                                30           86.11 Pattern_16                 ;
 17                                30          240.28 Pattern_17                 ;
 18                                30          373.61 Pattern_18                 ;
 19                                30           16.67 Pattern_19                 ;
 20                                30          354.17 Pattern_20                 ;
 21                                30          258.33 Pattern_21                 ;
 22                                30          134.72 Pattern_22                 ;
 23                                30          290.28 Pattern_23                 ;
 24                                30          227.78 Pattern_24                 ;
 25                                30           47.22 Pattern_25                 ;
 26                                30             250 Pattern_26                 ;
 27                                30          102.78 Pattern_27                 ;
 28                                30           80.56 Pattern_28                 ;
 29                                30             100 Pattern_29                 ;
 30                                30             100 Pattern_30                 ;
 31                                30           29.17 Pattern_31                 ;
 32                                30          223.61 Pattern_32                 ;

[RESERVOIRS]
;ID                                   Head                  Pattern
 1                                100                            ;

[TANKS]
;ID                              Elevation           Init Level            Min Level            Max Level             Diameter           Min Volume Volume Curve         Overflow            

[PIPES]
;ID                   Node1                Node2                              Length             Diameter            Roughness           Minor Loss               Status
 1                    1                    2                                100            1016             130               0                 Open   ;
 2                    2                    3                               1350            1016             130               0                 Open   ;
 3                    3                    4                                900            1016             130               0                 Open   ;
 4                    4                    5                               1150            1016             130               0                 Open   ;
 5                    5                    6                               1450            1016             130               0                 Open   ;
 6                    6                    7                                450            1016             130               0                 Open   ;
 7                    7                    8                                850            1016             130               0                 Open   ;
 8                    8                    9                                850            1016             130               0                 Open   ;
 9                    9                    10                               800            1016             130               0                 Open   ;
 10                   10                   11                               950             762             130               0                 Open   ;
 11                   11                   12                              1200             762             130               0                 Open   ;
 12                   12                   13                              3500           609.6             130               0                 Open   ;
 13                   10                   14                               800           406.4             130               0                 Open   ;
 14                   14                   15                               500           406.4             130               0                 Open   ;
 15                   15                   16                               550           304.8             130               0                 Open   ;
 16                   17                   16                              2730           406.4             130               0                 Open   ;
 17                   17                   18                              1750             508             130               0                 Open   ;
 18                   18                   19                               800           609.6             130               0                 Open   ;
 19                   19                   3                                400           609.6             130               0                 Open   ;
 20                   3                    20                              2200            1016             130               0                 Open   ;
 21                   20                   21                              1500             508             130               0                 Open   ;
 22                   21                   22                               500           304.8             130               0                 Open   ;
 23                   20                   23                              2650            1016             130               0                 Open   ;
 24                   23                   24                              1230             762             130               0                 Open   ;
 25                   24                   25                              1300             762             130               0                 Open   ;
 26                   26                   25                               850             508             130               0                 Open   ;
 27                   27                   26                               300           304.8             130               0                 Open   ;
 28                   16                   27                               750           304.8             130               0                 Open   ;
 29                   23                   28                              1500           406.4             130               0                 Open   ;
 30                   28                   29                              2000           406.4             130               0                 Open   ;
 31                   29                   30                              1600           304.8             130               0                 Open   ;
 32                   30                   31                               150           304.8             130               0                 Open   ;
 33                   32                   31                               860           406.4             130               0                 Open   ;
 34                   25                   32                               950             508             130               0                 Open   ;

[PUMPS]
;ID                   Node1                Node2                Properties          

[VALVES]
;ID                   Node1                Node2                            Diameter Type              Setting           Minor Loss

[TAGS]
;type      name       tag       

[DEMANDS]
;ID        Demand     Pattern   

[STATUS]
;ID        Setting   
[PATTERNS]
;ID        Multipliers

Pattern_2 0.743673 0.755005 0.657336 0.635001 0.560403 0.614865
Pattern_2 0.545294 0.572673 0.598451 0.621986 0.619161 0.680257
Pattern_2 0.657765 0.672145 0.804818 0.887765 0.970978 1.034817
Pattern_2 1.201409 1.161543 1.308690 1.292855 1.367439 1.480354
Pattern_2 1.256987 1.407081 1.276249 1.285365 1.191003 1.195179
Pattern_2 1.209706 1.227425 1.130370 1.104914 1.120017 1.257169
Pattern_2 1.212676 1.151580 1.182105 1.280139 1.177421 1.237257
Pattern_2 1.178991 1.163124 1.057313 0.898057 0.930422 0.910190
Pattern_2 0.763939 0.694905 0.554987 0.564307 0.464584 0.524391
Pattern_2 0.534978 0.549038 0.606175 0.724689 0.716735 0.867987
Pattern_2 0.954468 1.048798 1.259095 1.311768 1.313681 1.475884
Pattern_2 1.573044 1.633690 1.574313 1.552830 1.489016 1.416079
Pattern_2 1.425255 1.586611 1.219614 1.223982 1.241799 1.258441
Pattern_2 1.151665 1.130702 1.204640 1.045929 1.155198 1.045788
Pattern_2 1.310342 1.292529 1.152344 1.366647 1.293384 1.417794
Pattern_2 1.204735 1.130321 1.251937 1.086428 1.025877 0.931038
Pattern_2 0.899789 0.744523 0.656632 0.594116 0.582012 0.535852
Pattern_2 0.551034 0.554906 0.621461 0.689076 0.829981 0.836588
Pattern_2 0.937333 1.085474 1.211787 1.308472 1.442592 1.316160
Pattern_2 1.443911 1.375409 1.524713 1.542851 1.468737 1.496943
Pattern_2 1.391707 1.406375 1.419377 1.327016 1.324439 1.165648
Pattern_2 1.174159 1.205707 1.140230 1.261402 1.195110 1.202032
Pattern_2 1.272878 1.331678 1.333912 1.505791 1.381251 1.369323
Pattern_2 1.263654 1.258309 1.238529 1.085823 0.941987 0.882546
Pattern_2 0.777377 0.733704 0.605010 0.615012 0.560238 0.516624
Pattern_2 0.520720 0.579335 0.622321 0.791995 0.828020 0.845015
Pattern_2 1.063489 1.096975 1.245777 1.221879 1.457884 1.574573
Pattern_2 1.384835 1.509666 1.400522 1.534376 1.499278 1.537178
Pattern_2 1.485473 1.574747 1.437127 1.443207 1.326624 1.309895
Pattern_2 1.198816 1.256939 1.213041 1.136520 1.316414 1.215216
Pattern_2 1.273944 1.153749 1.392078 1.408297 1.354199 1.397728
Pattern_2 1.300817 1.292024 1.113796 1.163603 1.063350 0.871505
Pattern_2 0.857587 0.687705 0.635255 0.616212 0.525940 0.569484
Pattern_2 0.545129 0.577931 0.588303 0.676324 0.707407 0.831388
Pattern_2 0.973758 1.196337 1.124991 1.314188 1.301005 1.393083
Pattern_2 1.326723 1.477329 1.524176 1.519461 1.499271 1.488594
Pattern_2 1.445593 1.289043 1.398071 1.301935 1.225026 1.252106
Pattern_2 1.187614 1.185452 1.252621 1.232839 1.137324 1.174989
Pattern_2 1.317225 1.349525 1.362873 1.398699 1.312182 1.220391
Pattern_2 1.272988 1.268465 1.060703 1.098820 1.039611 0.983177
Pattern_2 0.855072 0.709824 0.693769 0.571633 0.557075 0.517979
Pattern_2 0.558009 0.585636 0.680089 0.713534 0.835807 0.919683
Pattern_2 1.051923 1.275822 1.445248 1.497938 1.523219 1.546810
Pattern_2 1.627067 1.708563 1.693209 1.690542 1.788537 1.622071
Pattern_2 1.596345 1.457861 1.506562 1.310780 1.355464 1.356025
Pattern_2 1.164034 1.301755 1.368108 1.195139 1.193037 1.338655
Pattern_2 1.280456 1.370338 1.372879 1.275339 1.224536 1.263490
Pattern_2 1.177201 1.189981 1.126887 1.188363 0.995172 0.973586
Pattern_2 0.844749 0.951071 0.751108 0.693723 0.655844 0.594838
Pattern_2 0.543629 0.576163 0.577705 0.618246 0.695957 0.713405
Pattern_2 0.841391 0.928511 1.057445 1.111983 1.123060 1.342287
Pattern_2 1.406179 1.345939 1.515744 1.433280 1.428940 1.319619
Pattern_2 1.359783 1.346939 1.349457 1.461086 1.473262 1.450564
Pattern_2 1.391356 1.286768 1.130422 1.128609 1.311956 1.272299
Pattern_2 1.257477 1.349109 1.201561 1.090093 1.217946 1.192730
Pattern_2 1.118246 1.020652 1.075348 0.937892 0.914692 0.831381
Pattern_2 0.774958 0.779646 0.749773 0.675423 0.669830 0.544054
Pattern_2 0.613313 0.600358 0.632719 0.621011 0.586903 0.675428
Pattern_2 0.672699 0.747834 0.803544 0.944455 0.939483 1.069636
Pattern_2 1.106748 1.201268 1.250271 1.323691 1.361467 1.319210
Pattern_2 1.272956 1.257032 1.300565 1.191913 1.254727 1.212022
Pattern_2 1.169334 1.271033 1.204453 1.192595 1.076830 1.256035
Pattern_2 1.197742 1.136637 1.328425 1.157280 1.219173 1.219870
Pattern_2 1.257677 1.063528 1.154563 0.986262 0.946614 0.827250
Pattern_2 0.768945 0.704198 0.617488 0.578327 0.543653 0.507851
Pattern_2 0.574765 0.584155 0.597144 0.676112 0.761942 0.879240
Pattern_2 0.964191 1.149838 1.089614 1.365393 1.368695 1.508798
Pattern_2 1.566450 1.648503 1.650296 1.569895 1.639696 1.508090
Pattern_2 1.725402 1.434786 1.454434 1.338056 1.314556 1.263884
Pattern_2 1.167152 1.211959 1.207935 1.124929 1.134140 1.267915
Pattern_2 1.228816 1.300651 1.278412 1.446020 1.332657 1.359362
Pattern_2 1.244405 1.237613 1.164991 0.991424 0.983907 0.909752
Pattern_2 0.803609 0.745838 0.649589 0.625733 0.536313 0.546474
Pattern_2 0.558843 0.561266 0.531200 0.690374 0.779073 0.892822
Pattern_2 0.967551 1.004114 1.256745 1.197416 1.418538 1.589133
Pattern_2 1.491832 1.655212 1.630477 1.618683 1.511385 1.351410
Pattern_2 1.354493 1.463814 1.264111 1.228858 1.267256 1.309772
Pattern_2 1.326092 1.218656 1.205908 1.193146 1.252996 1.301059
Pattern_2 1.340208 1.350053 1.325305 1.364766 1.362522 1.319194
Pattern_2 1.366596 1.281973 1.202452 1.166193 1.049850 0.914155
Pattern_2 0.876671 0.738196 0.647842 0.583957 0.526166 0.522165
Pattern_2 0.494225 0.562410 0.587835 0.680499 0.794782 0.916162
Pattern_2 0.950224 1.054856 1.125862 1.309567 1.334129 1.450259
Pattern_2 1.563966 1.494836 1.458580 1.602502 1.467448 1.539572
Pattern_2 1.569687 1.362595 1.357926 1.347406 1.392367 1.313170
Pattern_2 1.259636 1.286279 1.208537 1.301094 1.264581 1.228701
Pattern_2 1.157786 1.356494 1.348542 1.247821 1.496816 1.331043
Pattern_2 1.302147 1.317625 1.159603 1.115165 1.038409 1.025523
Pattern_2 0.827585 0.813593 0.621098 0.607078 0.565385 0.481705
Pattern_2 0.568730 0.546189 0.683039 0.685230 0.822663 0.888004
Pattern_2 1.018120 1.175893 1.209138 1.345129 1.387485 1.562220
Pattern_2 1.611972 1.614390 1.458020 1.582951 1.577891 1.424948
Pattern_2 1.442131 1.518669 1.406767 1.448720 1.246388 1.281920
Pattern_2 1.260083 1.202508 1.208666 1.245767 1.202978 1.289807
Pattern_2 1.313001 1.322944 1.343413 1.290830 1.223130 1.309448
Pattern_2 1.260168 1.299084 1.199909 1.222592 1.142390 0.879102
Pattern_2 0.801367 0.770227 0.714415 0.565110 0.591476 0.589668
Pattern_2 0.541459 0.612081 0.627100 0.785513 0.811073 1.135226
Pattern_2 1.125671 1.148626 1.412468 1.331158 1.456103 1.548962
Pattern_2 1.750871 1.780069 1.724173 1.780600 1.591729 1.637528
Pattern_2 1.525383 1.430658 1.513531 1.443894 1.397741 1.293455
Pattern_2 1.213702 1.330420 1.373173 1.229939 1.304311 1.202087
Pattern_2 1.243707 1.378859 1.395290 1.295562 1.369010 1.358282
Pattern_2 1.313335 1.166491 1.217054 1.189064 1.089241 0.935104
Pattern_2 0.935079 0.789513 0.759777 0.666376 0.682156 0.612206
Pattern_2 0.554397 0.550721 0.593640 0.675132 0.646663 0.756220
Pattern_2 0.851682 0.885973 1.065602 1.125451 1.226839 1.209006
Pattern_2 1.342078 1.451868 1.408209 1.420446 1.463110 1.359327
Pattern_2 1.489092 1.400234 1.394751 1.369391 1.400008 1.396991
Pattern_2 1.350889 1.260452 1.277489 1.365184 1.314286 1.157570
Pattern_2 1.313079 1.292236 1.335045 1.333171 1.229587 1.182201
Pattern_2 1.165672 1.087890 1.031638 1.007072 0.871876 0.805937
Pattern_2 0.814151

Pattern_3 0.827486 0.693515 0.747507 0.578968 0.536099 0.534193
Pattern_3 0.535019 0.500178 0.528563 0.542402 0.563913 0.635076
Pattern_3 0.612530 0.653886 0.780241 0.867840 0.989520 0.972347
Pattern_3 1.085325 1.095685 1.196844 1.361267 1.264686 1.365556
Pattern_3 1.233987 1.326405 1.343827 1.241006 1.109329 1.155831
Pattern_3 1.134052 1.066488 1.114015 1.075861 1.124026 1.153124
Pattern_3 1.101674 1.177498 1.126959 1.199294 1.227272 1.206036
Pattern_3 1.274542 1.105883 1.180864 0.887314 0.985301 0.820039
Pattern_3 0.761739 0.670362 0.612334 0.557624 0.515684 0.479920
Pattern_3 0.493152 0.501605 0.518779 0.640668 0.671264 0.752836
Pattern_3 0.882168 1.035436 1.162881 1.171247 1.376326 1.337669
Pattern_3 1.571751 1.580315 1.514065 1.597427 1.540794 1.487629
Pattern_3 1.654013 1.327542 1.394353 1.301360 1.274510 1.238852
Pattern_3 1.257139 1.154073 1.239138 1.189218 1.194220 1.107062
Pattern_3 1.233867 1.247206 1.337151 1.435890 1.425053 1.190147
Pattern_3 1.205845 1.293379 1.169001 1.136250 1.021050 0.898596
Pattern_3 0.852355 0.750350 0.635310 0.557258 0.521814 0.475100
Pattern_3 0.496530 0.505215 0.604420 0.585726 0.695852 0.746692
Pattern_3 0.927171 0.993961 1.090454 1.093513 1.299217 1.391590
Pattern_3 1.538375 1.466309 1.481872 1.511767 1.468172 1.434231
Pattern_3 1.413444 1.395807 1.193394 1.252473 1.284758 1.250290
Pattern_3 1.153052 1.154876 1.105979 1.269553 1.151343 1.290701
Pattern_3 1.277218 1.407644 1.270696 1.381486 1.478719 1.471099
Pattern_3 1.312405 1.264394 1.149617 1.104535 0.960603 0.905347
Pattern_3 0.848662 0.686828 0.545542 0.536530 0.504533 0.486880
Pattern_3 0.454236 0.505085 0.596564 0.607672 0.726858 0.837384
Pattern_3 0.845122 1.046792 1.189141 1.152270 1.412721 1.425888
Pattern_3 1.294482 1.562518 1.517983 1.537662 1.411539 1.534135
Pattern_3 1.472453 1.531557 1.358729 1.284166 1.229218 1.317352
Pattern_3 1.266552 1.272407 1.303000 1.376710 1.332358 1.312778
Pattern_3 1.218316 1.389204 1.423003 1.327806 1.455146 1.361098
Pattern_3 1.394261 1.181902 1.173047 1.093002 1.088700 0.912143
Pattern_3 0.854321 0.723603 0.653937 0.532319 0.541197 0.475746
Pattern_3 0.507326 0.544748 0.562977 0.612918 0.750065 0.752090
Pattern_3 0.952243 1.088450 1.210774 1.276162 1.224890 1.410214
Pattern_3 1.382036 1.492920 1.487926 1.560922 1.442281 1.415875
Pattern_3 1.411504 1.428004 1.319504 1.349684 1.203971 1.250214
Pattern_3 1.220869 1.342475 1.243927 1.294040 1.283878 1.212062
Pattern_3 1.245260 1.442431 1.400551 1.359553 1.362502 1.210221
Pattern_3 1.315616 1.223126 1.171048 1.141037 0.954004 0.899261
Pattern_3 0.873468 0.720256 0.631974 0.541783 0.571588 0.528107
Pattern_3 0.486499 0.564391 0.604701 0.693958 0.865001 0.963331
Pattern_3 1.053998 1.216558 1.343719 1.473974 1.559445 1.595392
Pattern_3 1.643000 1.632975 1.697208 1.544912 1.657211 1.583199
Pattern_3 1.500367 1.631170 1.628903 1.539909 1.444333 1.249597
Pattern_3 1.276301 1.316337 1.284881 1.365915 1.311458 1.428957
Pattern_3 1.242758 1.309425 1.341134 1.272688 1.298013 1.254059
Pattern_3 1.224879 1.246950 1.188011 1.071152 1.084668 0.998305
Pattern_3 0.880564 0.751080 0.739216 0.683104 0.608597 0.540843
Pattern_3 0.493485 0.511470 0.571191 0.565148 0.641611 0.675128
Pattern_3 0.813255 0.926354 1.018093 1.075391 1.127234 1.341079
Pattern_3 1.221953 1.355164 1.416192 1.366137 1.352067 1.408933
Pattern_3 1.421962 1.550185 1.449799 1.264540 1.378775 1.333343
Pattern_3 1.453838 1.340817 1.273336 1.251587 1.439299 1.325613
Pattern_3 1.364262 1.345925 1.385753 1.244697 1.208554 1.129062
Pattern_3 1.185231 1.146880 1.040175 0.896135 0.867209 0.812711
Pattern_3 0.774521 0.713531 0.661810 0.640079 0.707978 0.599263
Pattern_3 0.543854 0.549586 0.547419 0.539275 0.528151 0.595591
Pattern_3 0.640663 0.753683 0.758176 0.828555 0.980848 1.101977
Pattern_3 1.151780 1.233215 1.311700 1.273695 1.370611 1.317542
Pattern_3 1.351031 1.311459 1.345712 1.318423 1.321336 1.180268
Pattern_3 1.235821 1.186432 1.131227 1.120847 1.169994 1.247687
Pattern_3 1.201029 1.341938 1.354009 1.224767 1.207125 1.353088
Pattern_3 1.153365 1.056890 1.091466 1.056063 0.943772 0.816792
Pattern_3 0.756469 0.706296 0.622285 0.501355 0.522541 0.419182
Pattern_3 0.479259 0.518731 0.561137 0.600708 0.737277 0.766149
Pattern_3 0.975098 1.080360 1.194120 1.172082 1.343405 1.557939
Pattern_3 1.518703 1.537158 1.517683 1.622211 1.644997 1.460206
Pattern_3 1.459382 1.491026 1.359718 1.274688 1.455800 1.276469
Pattern_3 1.201885 1.209930 1.129380 1.150417 1.168331 1.134729
Pattern_3 1.197797 1.387534 1.291665 1.216703 1.265957 1.500465
Pattern_3 1.421570 1.312199 1.166586 1.191279 1.025608 0.961904
Pattern_3 0.814257 0.682961 0.613698 0.541567 0.561954 0.511803
Pattern_3 0.461209 0.473371 0.604239 0.617938 0.783312 0.795494
Pattern_3 0.918229 1.022623 1.189920 1.336292 1.229484 1.433289
Pattern_3 1.417400 1.556252 1.578399 1.598920 1.594486 1.642690
Pattern_3 1.470122 1.393538 1.450069 1.304208 1.286692 1.150859
Pattern_3 1.203628 1.305820 1.228384 1.200831 1.224895 1.178816
Pattern_3 1.447755 1.346295 1.367055 1.347804 1.392765 1.372767
Pattern_3 1.388840 1.336681 1.205196 1.192303 1.019244 0.951434
Pattern_3 0.892086 0.739849 0.687999 0.516354 0.548943 0.528739
Pattern_3 0.515720 0.513078 0.561577 0.672662 0.750753 0.950835
Pattern_3 0.883037 0.976997 1.190095 1.276845 1.403431 1.370702
Pattern_3 1.392900 1.691545 1.521034 1.554089 1.402251 1.441036
Pattern_3 1.335160 1.481656 1.425661 1.446456 1.415843 1.468164
Pattern_3 1.312218 1.253604 1.250010 1.263413 1.358121 1.362025
Pattern_3 1.323321 1.279144 1.326714 1.325440 1.300494 1.344967
Pattern_3 1.337216 1.232516 1.080987 1.072728 1.020886 0.974103
Pattern_3 0.878089 0.733583 0.635799 0.543195 0.523129 0.513779
Pattern_3 0.473332 0.524623 0.595408 0.684125 0.754061 0.850465
Pattern_3 1.088064 1.187301 1.334889 1.318731 1.413228 1.491809
Pattern_3 1.519469 1.462691 1.520374 1.646802 1.458801 1.465194
Pattern_3 1.530312 1.373007 1.310043 1.261282 1.279903 1.363908
Pattern_3 1.209617 1.372299 1.224366 1.184502 1.277172 1.317622
Pattern_3 1.246898 1.366575 1.328115 1.395043 1.460021 1.343578
Pattern_3 1.357425 1.269282 1.180057 1.190629 1.055532 0.987014
Pattern_3 0.862503 0.771645 0.645261 0.613347 0.543109 0.528114
Pattern_3 0.539782 0.535493 0.650553 0.739780 0.799593 0.922697
Pattern_3 1.178330 1.279462 1.410530 1.439924 1.630850 1.785912
Pattern_3 1.798094 1.629582 1.738612 1.740071 1.587390 1.678985
Pattern_3 1.597190 1.540349 1.560372 1.402466 1.356632 1.329010
Pattern_3 1.293350 1.209397 1.377304 1.286734 1.289707 1.272675
Pattern_3 1.284479 1.283402 1.281021 1.304841 1.380554 1.344839
Pattern_3 1.261228 1.352526 1.248854 1.063878 0.997264 1.025982
Pattern_3 0.826451 0.835931 0.725775 0.604273 0.606710 0.563981
Pattern_3 0.522983 0.568382 0.577897 0.571866 0.634836 0.731535
Pattern_3 0.764148 0.888338 0.987531 1.044652 1.226667 1.230937
Pattern_3 1.220449 1.440885 1.315690 1.460249 1.519032 1.567814
Pattern_3 1.599841 1.452195 1.457372 1.374533 1.429581 1.539648
Pattern_3 1.327370 1.503376 1.372452 1.375213 1.381691 1.294099
Pattern_3 1.270855 1.356838 1.303024 1.174978 1.293736 1.305679
Pattern_3 1.163000 1.165425 1.074089 1.018196 0.900761 0.879957
Pattern_3 0.829836

Pattern_4 0.882855 0.860255 0.718826 0.675889 0.641209 0.621273
Pattern_4 0.660294 0.586215 0.661162 0.627081 0.644475 0.679755
Pattern_4 0.724333 0.793308 0.873258 0.855417 0.956894 1.095594
Pattern_4 1.184283 1.186432 1.216487 1.341282 1.330984 1.233081
Pattern_4 1.300318 1.309517 1.236891 1.358186 1.350637 1.161105
Pattern_4 1.195208 1.148072 1.098138 1.155205 1.076360 1.099331
Pattern_4 1.212067 1.273033 1.243001 1.128167 1.109455 1.156690
Pattern_4 1.137729 1.117973 1.105559 1.006544 0.934838 0.826773
Pattern_4 0.822139 0.677183 0.657271 0.659778 0.504779 0.541284
Pattern_4 0.619100 0.590181 0.608415 0.665622 0.721582 0.803686
Pattern_4 1.006679 1.090914 1.242956 1.372979 1.349553 1.433889
Pattern_4 1.590267 1.632359 1.607050 1.806271 1.582819 1.480810
Pattern_4 1.482099 1.431459 1.373748 1.155440 1.258040 1.153493
Pattern_4 1.170665 1.032301 1.154481 1.156970 1.104246 1.093323
Pattern_4 1.282866 1.321200 1.289887 1.356311 1.200082 1.291927
Pattern_4 1.279503 1.183252 1.103501 1.054394 1.111619 0.964043
Pattern_4 0.809308 0.798126 0.651437 0.680819 0.541983 0.566427
Pattern_4 0.564189 0.555353 0.645966 0.665200 0.724398 0.801014
Pattern_4 0.913538 0.975459 1.160231 1.212581 1.270390 1.338428
Pattern_4 1.388152 1.543997 1.500068 1.545516 1.459690 1.570039
Pattern_4 1.583376 1.352905 1.294448 1.336600 1.189551 1.136200
Pattern_4 1.082582 1.322985 1.112321 1.233051 1.135362 1.325543
Pattern_4 1.207427 1.309936 1.294579 1.305749 1.296425 1.382625
Pattern_4 1.177970 1.221204 1.199556 1.138159 0.954261 1.000459
Pattern_4 0.788994 0.843500 0.670457 0.638824 0.620091 0.558052
Pattern_4 0.582813 0.626715 0.642355 0.674018 0.849746 0.891275
Pattern_4 0.989793 1.061089 1.216736 1.294131 1.397407 1.269329
Pattern_4 1.566200 1.539232 1.608774 1.643503 1.445615 1.574500
Pattern_4 1.346079 1.390824 1.327323 1.339490 1.245288 1.265188
Pattern_4 1.252306 1.167203 1.364684 1.172603 1.203522 1.331628
Pattern_4 1.263420 1.126755 1.411289 1.486352 1.373615 1.362869
Pattern_4 1.284158 1.223324 1.269771 1.125740 1.020954 0.974461
Pattern_4 0.847918 0.752716 0.711797 0.714961 0.572392 0.517026
Pattern_4 0.604807 0.604759 0.625944 0.731127 0.784190 0.880616
Pattern_4 0.950247 1.121520 1.250770 1.350355 1.339487 1.507155
Pattern_4 1.448622 1.435122 1.451927 1.531552 1.469352 1.387432
Pattern_4 1.444178 1.299250 1.267902 1.295067 1.248270 1.287129
Pattern_4 1.138359 1.184208 1.208199 1.153807 1.187608 1.296456
Pattern_4 1.320384 1.337576 1.470954 1.304382 1.446098 1.270235
Pattern_4 1.369824 1.244222 1.235902 1.187111 1.040065 0.941902
Pattern_4 0.930129 0.743917 0.817382 0.724998 0.650748 0.637863
Pattern_4 0.602305 0.656035 0.712502 0.799635 0.851895 0.977592
Pattern_4 1.117674 1.328667 1.369740 1.495929 1.655313 1.684915
Pattern_4 1.633122 1.661146 1.732882 1.527786 1.467707 1.439577
Pattern_4 1.516730 1.482226 1.338477 1.254210 1.441069 1.418068
Pattern_4 1.226424 1.203634 1.153695 1.229122 1.254482 1.331666
Pattern_4 1.387181 1.367310 1.421719 1.386239 1.272649 1.250475
Pattern_4 1.218984 1.242897 1.145714 1.067670 1.107946 1.018944
Pattern_4 0.922715 0.897907 0.859516 0.696076 0.737742 0.650597
Pattern_4 0.689813 0.614210 0.683313 0.657101 0.679439 0.771560
Pattern_4 0.819188 0.968857 1.055883 1.058885 1.226716 1.426991
Pattern_4 1.339953 1.319763 1.346072 1.606816 1.519836 1.390655
Pattern_4 1.449367 1.419165 1.286297 1.405442 1.311997 1.262108
Pattern_4 1.259991 1.236006 1.262507 1.299909 1.258791 1.370534
Pattern_4 1.212487 1.156362 1.157197 1.227489 1.188063 1.120386
Pattern_4 1.013890 1.070596 1.031386 0.990790 0.923377 0.887512
Pattern_4 0.883791 0.730874 0.748503 0.743157 0.701567 0.707690
Pattern_4 0.664994 0.610966 0.639996 0.577092 0.665411 0.650240
Pattern_4 0.701952 0.707319 0.863684 0.844200 1.015961 1.050369
Pattern_4 1.105043 1.321123 1.220695 1.320864 1.277099 1.323103
Pattern_4 1.224054 1.361620 1.279155 1.314498 1.227335 1.225786
Pattern_4 1.184463 1.253348 1.232380 1.056890 1.111958 1.188487
Pattern_4 1.263811 1.164192 1.226324 1.315479 1.275662 1.200468
Pattern_4 1.250675 1.164799 1.042678 1.031786 0.992688 0.926804
Pattern_4 0.799315 0.733725 0.666725 0.600224 0.603300 0.550261
Pattern_4 0.567261 0.563130 0.706522 0.773061 0.861208 0.865315
Pattern_4 0.982113 1.107973 1.158904 1.413118 1.323849 1.414319
Pattern_4 1.648520 1.510949 1.470632 1.532496 1.632890 1.571718
Pattern_4 1.415810 1.463359 1.434571 1.288395 1.163364 1.128528
Pattern_4 1.191310 1.187689 1.202757 1.213997 1.127470 1.187175
Pattern_4 1.241931 1.252005 1.313501 1.368605 1.414723 1.357866
Pattern_4 1.200148 1.378413 1.107633 1.160008 1.049113 1.023561
Pattern_4 0.880771 0.751206 0.705465 0.644894 0.612706 0.591870
Pattern_4 0.511844 0.657058 0.601414 0.801368 0.810150 0.896167
Pattern_4 0.892506 1.094878 1.233654 1.307530 1.400346 1.401227
Pattern_4 1.391414 1.424562 1.485276 1.480158 1.405792 1.510756
Pattern_4 1.410584 1.475002 1.191098 1.236664 1.204159 1.167956
Pattern_4 1.249375 1.219771 1.195586 1.230528 1.312174 1.286698
Pattern_4 1.356502 1.391932 1.346719 1.334606 1.455053 1.417161
Pattern_4 1.454743 1.293015 1.249982 1.062445 1.005760 0.903743
Pattern_4 0.876130 0.803672 0.678977 0.620728 0.605796 0.606675
Pattern_4 0.596848 0.689172 0.676942 0.700094 0.917911 0.983208
Pattern_4 1.124052 1.130076 1.283172 1.382274 1.396943 1.488399
Pattern_4 1.419731 1.457913 1.613024 1.532008 1.628881 1.435843
Pattern_4 1.371457 1.482046 1.473948 1.375021 1.397980 1.181684
Pattern_4 1.248969 1.275993 1.116809 1.198541 1.251769 1.319103
Pattern_4 1.194391 1.311622 1.316754 1.306021 1.428810 1.344549
Pattern_4 1.175070 1.262599 1.195824 1.147522 1.116016 0.993335
Pattern_4 0.862825 0.782710 0.700248 0.595005 0.591434 0.582300
Pattern_4 0.624675 0.682789 0.724160 0.649912 0.830199 0.842586
Pattern_4 1.048218 1.075794 1.280107 1.407312 1.300697 1.533778
Pattern_4 1.606928 1.467596 1.430929 1.442226 1.555507 1.404920
Pattern_4 1.275791 1.392657 1.305762 1.353087 1.281323 1.149304
Pattern_4 1.199110 1.211964 1.358397 1.319295 1.290358 1.395973
Pattern_4 1.281643 1.254040 1.316525 1.367402 1.373861 1.349920
Pattern_4 1.309603 1.237198 1.226401 1.185816 1.204711 1.017601
Pattern_4 0.879301 0.770148 0.729169 0.651962 0.652442 0.590926
Pattern_4 0.631149 0.664871 0.673597 0.873141 0.885212 0.974727
Pattern_4 1.090935 1.364234 1.509746 1.572576 1.469009 1.724065
Pattern_4 1.765473 1.686791 1.799067 1.828851 1.550809 1.591638
Pattern_4 1.485412 1.710084 1.363407 1.472899 1.381815 1.361586
Pattern_4 1.255301 1.270736 1.451121 1.312311 1.300242 1.358269
Pattern_4 1.203736 1.254252 1.318805 1.360413 1.361150 1.269891
Pattern_4 1.287449 1.179528 1.194396 1.125698 1.116962 0.940505