; Filename: ../LeakDB/CCWI-WDSA2018/Dataset_Generator/networks/Hanoi_CMH.inp
; WNTR: 0.3.1
; Created: 2022-05-13 10:14:49
[TITLE]

[JUNCTIONS]
;ID                      Elevation       Demand Pattern                 
 2                                 30          247.22 Pattern_2                  ;
 3                                 30          236.11 Pattern_3                  ;
 4                                 30           36.11 Pattern_4                  ;
 5                                 30          201.39 Pattern_5                  ;
 6                                 30          279.17 Pattern_6                  ;
 7                                 30             375 Pattern_7                  ;
 8                                 30          152.78 Pattern_8                  ;
 9                                 30          145.83 Pattern_9                  ;
 10                                30          145.83 Pattern_10                 ;
 11                                30          138.89 Pattern_11                 ;
 12                                30          155.56 Pattern_12                 ;
 13                                30          261.11 Pattern_13                 ;
 14                                30          170.83 Pattern_14                 ;
 15                                30           77.78 Pattern_15                 ;
 16                                30           86.11 Pattern_16                 ;
 17                                30          240.28 Pattern_17                 ;
 18                                30          373.61 Pattern_18                 ;
 19                                30           16.67 Pattern_19                 ;
 20                                30          354.17 Pattern_20                 ;
 21                                30          258.33 Pattern_21                 ;
 22                                30          134.72 Pattern_22                 ;
 23                                30          290.28 Pattern_23                 ;
 24                                30          227.78 Pattern_24                 ;
 25                                30           47.22 Pattern_25                 ;
 26                                30             250 Pattern_26                 ;
 27                                30          102.78 Pattern_27                 ;
 28                                30           80.56 Pattern_28                 ;
 29                                30             100 Pattern_29                 ;
 30                                30             100 Pattern_30                 ;
 31                                30           29.17 Pattern_31                 ;
 32                                30          223.61 Pattern_32                 ;

[RESERVOIRS]
;ID                                   Head                  Pattern
 1                                100                            ;

[TANKS]
;ID                              Elevation           Init Level            Min Level            Max Level             Diameter           Min Volume Volume Curve         Overflow            

[PIPES]
;ID                   Node1                Node2                              Length             Diameter            Roughness           Minor Loss               Status
 1                    1                    2                                100            1016             130               0                 Open   ;
 2                    2                    3                               1350            1016             130               0                 Open   ;
 3                    3                    4                                900            1016             130               0                 Open   ;
 4                    4                    5                               1150            1016             130               0                 Open   ;
 5                    5                    6                               1450            1016             130               0                 Open   ;
 6                    6                    7                                450            1016             130               0                 Open   ;
 7                    7                    8                                850            1016             130               0                 Open   ;
 8                    8                    9                                850            1016             130               0                 Open   ;
 9                    9                    10                               800            1016             130               0                 Open   ;
 10                   10                   11                               950             762             130               0                 Open   ;
 11                   11                   12                              1200             762             130               0                 Open   ;
 12                   12                   13                              3500           609.6             130               0                 Open   ;
 13                   10                   14                               800           406.4             130               0                 Open   ;
 14                   14                   15                               500           406.4             130               0                 Open   ;
 15                   15                   16                               550           304.8             130               0                 Open   ;
 16                   17                   16                              2730           406.4             130               0                 Open   ;
 17                   17                   18                              1750             508             130               0                 Open   ;
 18                   18                   19                               800           609.6             130               0                 Open   ;
 19                   19                   3                                400           609.6             130               0                 Open   ;
 20                   3                    20                              2200            1016             130               0                 Open   ;
 21                   20                   21                              1500             508             130               0                 Open   ;
 22                   21                   22                               500           304.8             130               0                 Open   ;
 23                   20                   23                              2650            1016             130               0                 Open   ;
 24                   23                   24                              1230             762             130               0                 Open   ;
 25                   24                   25                              1300             762             130               0                 Open   ;
 26                   26                   25                               850             508             130               0                 Open   ;
 27                   27                   26                               300           304.8             130               0                 Open   ;
 28                   16                   27                               750           304.8             130               0                 Open   ;
 29                   23                   28                              1500           406.4             130               0                 Open   ;
 30                   28                   29                              2000           406.4             130               0                 Open   ;
 31                   29                   30                              1600           304.8             130               0                 Open   ;
 32                   30                   31                               150           304.8             130               0                 Open   ;
 33                   32                   31                               860           406.4             130               0                 Open   ;
 34                   25                   32                               950             508             130               0                 Open   ;

[PUMPS]
;ID                   Node1                Node2                Properties          

[VALVES]
;ID                   Node1                Node2                            Diameter Type              Setting           Minor Loss

[TAGS]
;type      name       tag       

[DEMANDS]
;ID        Demand     Pattern   

[STATUS]
;ID        Setting   
[PATTERNS]
;ID        Multipliers

Pattern_2 0.697861 0.678161 0.605415 0.623959 0.605430 0.559866
Pattern_2 0.503315 0.536244 0.504461 0.548106 0.641779 0.618963
Pattern_2 0.696981 0.834504 0.810139 0.893592 0.997413 1.087666
Pattern_2 1.188556 1.187402 1.243895 1.343477 1.359445 1.343241
Pattern_2 1.187467 1.328069 1.266759 1.304282 1.157867 1.236544
Pattern_2 1.097007 1.221936 1.219049 1.175341 1.221706 1.163241
Pattern_2 1.225864 1.163333 1.275284 1.281347 1.431166 1.272072
Pattern_2 1.190604 1.171983 1.079244 1.001706 0.843978 0.811230
Pattern_2 0.718270 0.648043 0.578851 0.517026 0.481515 0.465995
Pattern_2 0.403339 0.485594 0.517060 0.642416 0.716256 0.829275
Pattern_2 0.910333 1.234684 1.196462 1.309436 1.433866 1.618242
Pattern_2 1.543785 1.626825 1.636331 1.716185 1.630110 1.673582
Pattern_2 1.538632 1.300477 1.403364 1.317447 1.216775 1.162300
Pattern_2 1.106528 1.043418 1.121845 1.126036 1.155958 1.146565
Pattern_2 1.102496 1.277406 1.375557 1.326278 1.328802 1.365446
Pattern_2 1.280721 1.271556 1.185238 1.187769 0.995911 0.826944
Pattern_2 0.745225 0.642269 0.624300 0.573815 0.495537 0.445707
Pattern_2 0.496844 0.509698 0.546436 0.690863 0.644396 0.830278
Pattern_2 0.926711 1.125948 1.162633 1.257965 1.358482 1.561756
Pattern_2 1.452285 1.675378 1.598673 1.608475 1.568409 1.500581
Pattern_2 1.367792 1.342933 1.292773 1.419543 1.301226 1.165847
Pattern_2 1.199431 1.209951 1.124617 1.240512 1.318335 1.231266
Pattern_2 1.304938 1.369246 1.283203 1.437173 1.344423 1.416807
Pattern_2 1.317115 1.322033 1.247933 1.023309 1.008175 0.888778
Pattern_2 0.745947 0.716390 0.622809 0.560145 0.499685 0.466862
Pattern_2 0.537137 0.497862 0.638265 0.671000 0.774018 0.829643
Pattern_2 0.985870 1.141765 1.213748 1.213524 1.415765 1.454966
Pattern_2 1.556941 1.578125 1.563707 1.584977 1.598488 1.422334
Pattern_2 1.633357 1.482023 1.389633 1.414725 1.417432 1.323323
Pattern_2 1.348937 1.276265 1.281567 1.205212 1.343895 1.351762
Pattern_2 1.417073 1.377654 1.276274 1.287058 1.403133 1.382783
Pattern_2 1.206308 1.284742 1.170892 1.159014 1.070502 0.905725
Pattern_2 0.739237 0.708728 0.604553 0.529131 0.507869 0.472578
Pattern_2 0.522469 0.554089 0.579125 0.717220 0.786357 0.952727
Pattern_2 1.062840 1.153180 1.213581 1.311219 1.364327 1.486319
Pattern_2 1.603891 1.551453 1.629936 1.583873 1.469427 1.408301
Pattern_2 1.384467 1.275670 1.290685 1.232135 1.310286 1.193785
Pattern_2 1.244840 1.091854 1.253984 1.255024 1.257311 1.345750
Pattern_2 1.257291 1.436175 1.419054 1.400256 1.414626 1.404321
Pattern_2 1.406736 1.258857 1.041551 1.131987 1.022277 0.916594
Pattern_2 0.839154 0.708912 0.617839 0.544450 0.495579 0.495886
Pattern_2 0.548701 0.526293 0.601790 0.688173 0.830231 1.025470
Pattern_2 1.097042 1.291318 1.544372 1.650652 1.685029 1.775190
Pattern_2 1.769079 1.855534 1.780366 1.610280 1.793679 1.553938
Pattern_2 1.620212 1.436763 1.292603 1.416006 1.229469 1.309452
Pattern_2 1.171161 1.305642 1.305585 1.323607 1.447480 1.301700
Pattern_2 1.368607 1.398817 1.420621 1.463491 1.450143 1.336146
Pattern_2 1.203133 1.242488 1.180823 1.055081 1.047630 0.954635
Pattern_2 0.808497 0.817112 0.701924 0.728271 0.593772 0.568265
Pattern_2 0.474147 0.523773 0.544432 0.598700 0.714050 0.791402
Pattern_2 0.814471 0.935158 1.132931 1.160134 1.224864 1.297068
Pattern_2 1.391680 1.448237 1.445232 1.404241 1.612324 1.533127
Pattern_2 1.537452 1.452500 1.296091 1.335569 1.242305 1.419607
Pattern_2 1.310222 1.408665 1.255065 1.414289 1.346006 1.376082
Pattern_2 1.430454 1.349254 1.254501 1.234293 1.269003 1.257793
Pattern_2 1.249626 1.108682 1.022015 1.032183 0.885112 0.768088
Pattern_2 0.743899 0.732954 0.673216 0.632411 0.593240 0.568283
Pattern_2 0.591770 0.523817 0.555181 0.546886 0.587615 0.631653
Pattern_2 0.726338 0.769153 0.854162 1.005787 0.989726 1.128958
Pattern_2 1.190026 1.295180 1.359707 1.410578 1.316176 1.372572
Pattern_2 1.284993 1.363683 1.344533 1.327293 1.341550 1.314423
Pattern_2 1.254481 1.173357 1.125331 1.195970 1.178783 1.252622
Pattern_2 1.270307 1.282466 1.279682 1.326467 1.314826 1.242697
Pattern_2 1.258802 1.320510 1.151047 0.894954 0.933157 0.785011
Pattern_2 0.736562 0.604465 0.558818 0.515072 0.471392 0.404092
Pattern_2 0.442203 0.461534 0.598060 0.672797 0.685898 0.951280
Pattern_2 1.028218 1.148069 1.219763 1.426356 1.361034 1.522787
Pattern_2 1.644736 1.606149 1.667004 1.727419 1.634147 1.618073
Pattern_2 1.435752 1.481248 1.367808 1.333011 1.170731 1.251278
Pattern_2 1.219721 1.303259 1.122243 1.053053 1.146062 1.212877
Pattern_2 1.203753 1.278853 1.313613 1.437128 1.348831 1.207630
Pattern_2 1.333199 1.097202 1.289450 1.175301 1.047843 0.869687
Pattern_2 0.806349 0.703541 0.590739 0.554056 0.526711 0.524311
Pattern_2 0.475654 0.539513 0.579727 0.661440 0.816866 0.838003
Pattern_2 0.990859 1.112268 1.238945 1.306608 1.468077 1.513081
Pattern_2 1.507527 1.511582 1.527906 1.580685 1.476072 1.472372
Pattern_2 1.521287 1.421042 1.294373 1.306975 1.277273 1.361523
Pattern_2 1.290013 1.137614 1.257656 1.226703 1.241377 1.362993
Pattern_2 1.311267 1.296751 1.301647 1.386129 1.467196 1.363081
Pattern_2 1.507635 1.239755 1.156874 1.050490 0.913351 0.891678
Pattern_2 0.780123 0.613382 0.555614 0.550895 0.505880 0.459606
Pattern_2 0.505223 0.543548 0.605818 0.694746 0.843975 0.934157
Pattern_2 1.021232 1.079645 1.102609 1.431275 1.362703 1.513462
Pattern_2 1.556700 1.478620 1.691080 1.504322 1.728347 1.509663
Pattern_2 1.512667 1.519845 1.381213 1.362992 1.396125 1.222587
Pattern_2 1.281576 1.180576 1.287113 1.195450 1.255512 1.373225
Pattern_2 1.563639 1.295636 1.312265 1.401877 1.406746 1.357432
Pattern_2 1.340907 1.136669 1.223517 1.141874 0.883766 0.934468
Pattern_2 0.779267 0.776327 0.566115 0.541754 0.498420 0.484567
Pattern_2 0.461385 0.526541 0.615106 0.707880 0.802341 0.855957
Pattern_2 0.926187 1.168905 1.254403 1.496442 1.425828 1.574073
Pattern_2 1.611682 1.445585 1.561612 1.498072 1.440643 1.374536
Pattern_2 1.471446 1.487697 1.321238 1.254810 1.323349 1.246209
Pattern_2 1.170191 1.241242 1.261354 1.269343 1.343917 1.296477
Pattern_2 1.360977 1.329085 1.625939 1.323365 1.460561 1.210257
Pattern_2 1.271720 1.278574 1.227094 1.201079 1.024909 0.891700
Pattern_2 0.826110 0.743246 0.669573 0.554488 0.522977 0.516333
Pattern_2 0.576557 0.578722 0.609888 0.711720 0.903405 0.917725
Pattern_2 1.139038 1.368851 1.413857 1.562235 1.770096 1.777313
Pattern_2 1.696482 1.752508 1.610526 1.655011 1.771612 1.684638
Pattern_2 1.472949 1.555267 1.615471 1.518490 1.377166 1.307683
Pattern_2 1.255498 1.423983 1.431655 1.374626 1.443157 1.433303
Pattern_2 1.359236 1.387103 1.359461 1.535924 1.511006 1.332498
Pattern_2 1.247702 1.208604 1.216155 1.110339 1.092647 1.040146
Pattern_2 0.875306 0.831469 0.693408 0.645978 0.585603 0.558849
Pattern_2 0.530412 0.506407 0.582918 0.645315 0.619584 0.754054
Pattern_2 0.861647 1.006700 0.985956 1.209938 1.236351 1.319172
Pattern_2 1.443068 1.434509 1.509693 1.538407 1.576420 1.583581
Pattern_2 1.483896 1.416449 1.504053 1.457348 1.428924 1.450771
Pattern_2 1.321877 1.264977 1.448648 1.286260 1.381400 1.367705
Pattern_2 1.336085 1.330149 1.357151 1.366521 1.249310 1.244861
Pattern_2 1.176746 1.081107 0.952294 1.025125 0.876124 0.794628
Pattern_2 0.818844

Pattern_3 0.889815 0.856580 0.852581 0.910891 0.794184 0.750055
Pattern_3 0.676158 0.701373 0.659094 0.738401 0.723429 0.719650
Pattern_3 0.855854 0.851679 0.884102 0.919389 1.002981 1.085825
Pattern_3 1.087114 1.126807 1.256978 1.239944 1.375529 1.330481
Pattern_3 1.340267 1.278547 1.300757 1.226780 1.262619 1.134278
Pattern_3 1.165298 1.112638 1.162960 1.054721 1.175605 1.193584
Pattern_3 1.180039 1.232969 1.223472 1.216403 1.139862 1.197607
Pattern_3 1.192680 1.098213 1.108450 0.995704 1.023824 0.936731
Pattern_3 0.898316 0.715975 0.862209 0.719845 0.704412 0.683311
Pattern_3 0.704978 0.723243 0.752309 0.742869 0.829202 0.921713
Pattern_3 0.936443 1.056597 1.165616 1.279896 1.350594 1.306139
Pattern_3 1.342074 1.244446 1.390539 1.413854 1.456174 1.526565
Pattern_3 1.482357 1.402697 1.341142 1.259557 1.200319 1.121334
Pattern_3 1.170244 1.171313 1.243134 1.018351 1.109984 1.239260
Pattern_3 1.118534 1.328472 1.284913 1.237172 1.276019 1.245824
Pattern_3 1.235954 1.165188 1.219969 1.197044 0.997539 0.971783
Pattern_3 0.906008 0.920982 0.737969 0.755078 0.657392 0.716898
Pattern_3 0.649952 0.714827 0.766578 0.766100 0.870545 0.864580
Pattern_3 1.046219 1.009541 1.148716 1.158243 1.337801 1.339736
Pattern_3 1.323086 1.320636 1.325632 1.441670 1.322925 1.370473
Pattern_3 1.314411 1.331197 1.186767 1.295836 1.132662 1.107692
Pattern_3 1.148185 1.170585 1.221957 1.177004 1.285310 1.247058
Pattern_3 1.300752 1.266517 1.362389 1.275912 1.313719 1.346660
Pattern_3 1.346918 1.211097 1.133711 1.062204 1.095665 0.910749
Pattern_3 0.890932 0.835967 0.821797 0.704365 0.738988 0.677504
Pattern_3 0.659340 0.733202 0.745227 0.771199 0.878819 0.966746
Pattern_3 0.966988 1.019659 1.257198 1.224648 1.168183 1.268374
Pattern_3 1.504410 1.389961 1.338629 1.419887 1.428601 1.328427
Pattern_3 1.297260 1.349741 1.376157 1.274842 1.261092 1.117120
Pattern_3 1.220656 1.072504 1.118116 1.177495 1.199816 1.181969
Pattern_3 1.235353 1.297717 1.334414 1.353981 1.307295 1.299270
Pattern_3 1.106934 1.247210 1.166666 1.102167 0.966795 0.953573
Pattern_3 0.872404 0.821794 0.821836 0.758543 0.749251 0.668094
Pattern_3 0.720874 0.659387 0.731624 0.789333 0.847940 0.850262
Pattern_3 1.090071 1.217922 1.257784 1.195881 1.224215 1.291503
Pattern_3 1.223206 1.352796 1.343175 1.361498 1.382599 1.203069
Pattern_3 1.259031 1.327264 1.226112 1.210367 1.138428 1.231629
Pattern_3 1.172610 1.235634 1.199699 1.158606 1.142487 1.183796
Pattern_3 1.311579 1.164946 1.302273 1.220441 1.333103 1.139865
Pattern_3 1.304833 1.200514 1.179295 1.090736 1.207425 1.009869
Pattern_3 0.935505 0.876402 0.844464 0.801545 0.790455 0.735342
Pattern_3 0.804498 0.645751 0.786813 0.823568 0.936166 1.004154
Pattern_3 1.075977 1.174885 1.231533 1.399904 1.440069 1.458308
Pattern_3 1.583164 1.473187 1.541271 1.541389 1.455487 1.459477
Pattern_3 1.474303 1.463848 1.364822 1.321590 1.232629 1.350454
Pattern_3 1.294176 1.320221 1.210323 1.306926 1.261637 1.290703
Pattern_3 1.441667 1.233135 1.220908 1.196554 1.301454 1.134184
Pattern_3 1.173821 1.096934 1.111600 1.074586 1.037676 0.977394
Pattern_3 0.968606 0.871981 0.906454 0.899377 0.785905 0.735339
Pattern_3 0.742054 0.697006 0.728303 0.745644 0.773669 0.858012
Pattern_3 0.876403 0.917351 0.931497 1.009321 1.095614 1.094695
Pattern_3 1.216760 1.292392 1.329805 1.185974 1.349214 1.416825
Pattern_3 1.287325 1.499961 1.419660 1.208142 1.161368 1.355543
Pattern_3 1.339349 1.230462 1.275146 1.266086 1.262827 1.188668
Pattern_3 1.306570 1.342390 1.258871 1.233951 1.095286 1.070159
Pattern_3 1.161571 1.050744 1.076392 1.055635 0.947676 0.957618
Pattern_3 0.858427 0.858021 0.794324 0.811945 0.807400 0.841442
Pattern_3 0.739911 0.626110 0.716075 0.774084 0.766777 0.827087
Pattern_3 0.796122 0.778184 0.803918 0.934860 0.989930 0.979430
Pattern_3 1.051149 1.204807 1.251704 1.169412 1.203176 1.243595
Pattern_3 1.374294 1.175391 1.322312 1.311817 1.317497 1.171908
Pattern_3 1.200904 1.309308 1.199912 1.287706 1.194778 1.303849
Pattern_3 1.077875 1.276276 1.227484 1.040717 1.168128 1.334063
Pattern_3 1.137203 1.126152 1.171764 0.962871 1.077253 0.935435
Pattern_3 0.873202 0.782536 0.803340 0.714103 0.693099 0.613906
Pattern_3 0.741582 0.732715 0.661398 0.834160 0.835791 0.972089
Pattern_3 1.028533 1.065388 1.233543 1.254030 1.354838 1.363020
Pattern_3 1.389078 1.555550 1.406415 1.549210 1.356279 1.541789
Pattern_3 1.413376 1.369481 1.406687 1.309414 1.265934 1.183374
Pattern_3 1.207584 1.233061 1.100464 1.179929 1.186996 1.172888
Pattern_3 1.223828 1.216747 1.199193 1.277950 1.382179 1.201342
Pattern_3 1.232296 1.314458 1.247544 1.182380 0.962343 0.982873
Pattern_3 0.921362 0.889326 0.758322 0.802710 0.724105 0.626127
Pattern_3 0.704041 0.691547 0.774466 0.815595 0.756653 0.889927
Pattern_3 1.047928 0.948378 1.171236 1.244215 1.226380 1.314419
Pattern_3 1.426336 1.416093 1.560645 1.516284 1.287653 1.392755
Pattern_3 1.218836 1.252121 1.346041 1.181448 1.168794 1.130317
Pattern_3 1.182196 1.120824 1.190849 1.231268 1.169685 1.256942
Pattern_3 1.405374 1.352154 1.264260 1.460145 1.308957 1.395294
Pattern_3 1.225513 1.220763 1.110334 1.112312 1.145537 0.978811
Pattern_3 0.920970 0.817172 0.850468 0.755224 0.720340 0.785761
Pattern_3 0.652924 0.759310 0.788358 0.844496 0.864012 1.109459
Pattern_3 1.008325 1.147366 1.175874 1.157623 1.304483 1.315694
Pattern_3 1.440915 1.388445 1.366360 1.434346 1.368134 1.423739
Pattern_3 1.485973 1.320069 1.344447 1.323210 1.322388 1.335493
Pattern_3 1.257172 1.280234 1.305440 1.268498 1.077140 1.155719
Pattern_3 1.205246 1.243798 1.255966 1.242961 1.363428 1.251030
Pattern_3 1.227804 1.377623 1.247080 1.090138 1.074705 1.032927
Pattern_3 0.959484 0.883077 0.789136 0.742797 0.723126 0.704433
Pattern_3 0.692194 0.745032 0.800279 0.811881 0.869796 1.014666
Pattern_3 0.939066 1.030219 1.193426 1.295270 1.361716 1.386191
Pattern_3 1.373119 1.428492 1.530243 1.276289 1.404961 1.397506
Pattern_3 1.306413 1.322412 1.384579 1.228245 1.314761 1.234359
Pattern_3 1.282013 1.205036 1.354939 1.200287 1.152982 1.283084
Pattern_3 1.210264 1.251190 1.282107 1.322927 1.324557 1.444408
Pattern_3 1.300876 1.158112 1.196095 1.040207 1.006808 1.012090
Pattern_3 0.925096 0.853078 0.727319 0.737708 0.784458 0.746355
Pattern_3 0.774072 0.765581 0.823756 0.790944 0.896899 0.922821
Pattern_3 1.112236 1.212701 1.314978 1.422409 1.503248 1.495067
Pattern_3 1.680441 1.475980 1.666733 1.440087 1.442929 1.555446
Pattern_3 1.433230 1.488248 1.459500 1.391387 1.243301 1.277456
Pattern_3 1.247946 1.162362 1.227044 1.203668 1.290402 1.190786
Pattern_3 1.380542 1.360457 1.327678 1.389488 1.243953 1.215743
Pattern_3 1.292301 1.205640 1.105074 1.156359 1.133646 1.017530
Pattern_3 1.011641 0.922771 0.941073 0.772983 0.852141 0.814689
Pattern_3 0.799143 0.807889 0.777755 0.807599 0.677671 0.838669
Pattern_3 0.989197 0.939409 0.957128 1.062715 1.166833 1.270200
Pattern_3 1.343155 1.332834 1.291458 1.363011 1.293469 1.321414
Pattern_3 1.284509 1.331979 1.340623 1.276193 1.330954 1.262358
Pattern_3 1.196244 1.347191 1.291925 1.261099 1.132468 1.152709
Pattern_3 1.346215 1.187048 1.192101 1.251917 1.187317 1.219143
Pattern_3 1.137598 1.106701 0.962562 0.990123 1.005416 1.064095
Pattern_3 0.982241

Pattern_4 0.734155 0.713871 0.622708 0.563354 0.501378 0.489303
Pattern_4 0.488795 0.464238 0.517336 0.496958 0.516316 0.590326
Pattern_4 0.671354 0.761439 0.881918 0.865495 1.056590 1.049193
Pattern_4 1.230328 1.260149 1.286952 1.378775 1.300753 1.375618
Pattern_4 1.299789 1.274671 1.216613 1.242002 1.270010 1.156286
Pattern_4 1.150300 1.134475 1.180292 1.084870 1.049211 1.212675
Pattern_4 1.189947 1.197377 1.372537 1.340116 1.246754 1.288255
Pattern_4 1.324644 1.175943 1.130451 1.060801 0.908590 0.838928
Pattern_4 0.701619 0.646227 0.509360 0.486439 0.391179 0.433395
Pattern_4 0.388524 0.458572 0.558955 0.667816 0.722483 0.784977
Pattern_4 0.988644 1.115082 1.279882 1.283923 1.567610 1.534850
Pattern_4 1.480183 1.724100 1.626337 1.649590 1.859871 1.599369
Pattern_4 1.361822 1.408710 1.344012 1.287460 1.188960 1.233602
Pattern_4 1.110922 1.074341 1.036728 1.174034 1.135647 1.209228
Pattern_4 1.238974 1.282126 1.419179 1.326469 1.399796 1.366073
Pattern_4 1.246559 1.262845 1.288159 1.136500 1.070315 0.887418
Pattern_4 0.738474 0.744753 0.601051 0.509147 0.491840 0.424689
Pattern_4 0.423136 0.447807 0.495973 0.556784 0.721709 0.834131
Pattern_4 0.902116 1.075003 1.177262 1.328132 1.309179 1.391043
Pattern_4 1.543947 1.571205 1.529549 1.516059 1.596860 1.534128
Pattern_4 1.322421 1.380447 1.460489 1.399069 1.300628 1.100803
Pattern_4 1.032865 1.109163 1.179473 1.210829 1.256522 1.272688
Pattern_4 1.356133 1.478961 1.370943 1.412094 1.410517 1.489760
Pattern_4 1.348230 1.287135 1.213863 1.160901 1.025826 0.864863
Pattern_4 0.768642 0.650567 0.568665 0.445097 0.467729 0.476101
Pattern_4 0.476678 0.512834 0.623604 0.696690 0.796441 0.875746
Pattern_4 1.005801 1.090968 1.244261 1.290071 1.539800 1.434113
Pattern_4 1.488846 1.705157 1.652968 1.655640 1.471422 1.455320
Pattern_4 1.369108 1.535147 1.439967 1.325401 1.202629 1.163699
Pattern_4 1.163980 1.252737 1.336108 1.258300 1.195629 1.340133
Pattern_4 1.306732 1.386631 1.341024 1.494973 1.478857 1.441165
Pattern_4 1.429452 1.354017 1.298852 1.238748 1.032215 0.972753
Pattern_4 0.735481 0.725694 0.615929 0.516204 0.437401 0.469758
Pattern_4 0.442850 0.520274 0.590663 0.679328 0.724107 0.962137
Pattern_4 1.142700 1.195611 1.372876 1.443629 1.517345 1.510437
Pattern_4 1.590568 1.584173 1.443473 1.681333 1.455116 1.511083
Pattern_4 1.407798 1.253278 1.230205 1.211370 1.192324 1.137278
Pattern_4 1.150028 1.135463 1.219977 1.221107 1.337536 1.309470
Pattern_4 1.319578 1.375361 1.397816 1.528381 1.386275 1.442259
Pattern_4 1.469615 1.401469 1.204104 1.180085 1.068516 0.922354
Pattern_4 0.847780 0.734578 0.665197 0.557106 0.493010 0.455974
Pattern_4 0.469028 0.525937 0.557040 0.791216 0.843577 1.049326
Pattern_4 1.142143 1.191438 1.391634 1.555971 1.761993 1.617813
Pattern_4 1.894992 1.686647 1.916509 1.620490 1.628041 1.653155
Pattern_4 1.533707 1.541852 1.325836 1.404531 1.317024 1.373258
Pattern_4 1.298218 1.280725 1.247170 1.324831 1.325324 1.345478
Pattern_4 1.441647 1.398148 1.458585 1.486472 1.308945 1.411490
Pattern_4 1.374995 1.186557 1.192749 1.174269 1.000346 0.975267
Pattern_4 0.895450 0.809031 0.748617 0.582565 0.563900 0.568812
Pattern_4 0.545987 0.510435 0.539377 0.615082 0.703781 0.728275
Pattern_4 0.859734 0.943663 1.054101 1.164512 1.136182 1.410452
Pattern_4 1.351857 1.506970 1.442583 1.557507 1.494419 1.455992
Pattern_4 1.386171 1.502459 1.369892 1.284076 1.477168 1.344020
Pattern_4 1.253753 1.234453 1.312311 1.323563 1.378686 1.313693
Pattern_4 1.471599 1.392346 1.328531 1.458221 1.222956 1.192891
Pattern_4 1.263766 1.196754 1.008479 0.959704 0.832803 0.890182
Pattern_4 0.724693 0.723431 0.635500 0.627228 0.521400 0.574549
Pattern_4 0.499342 0.520432 0.507730 0.523020 0.556376 0.658192
Pattern_4 0.711491 0.770450 0.844280 0.838262 0.993245 1.079231
Pattern_4 1.279506 1.199196 1.314555 1.304139 1.529362 1.256881
Pattern_4 1.356929 1.389913 1.320772 1.247216 1.292246 1.163965
Pattern_4 1.180686 1.152150 1.173265 1.138726 1.186810 1.300584
Pattern_4 1.227372 1.239946 1.261722 1.198411 1.225964 1.344351
Pattern_4 1.181905 1.223866 1.164735 1.051380 0.927968 0.801742
Pattern_4 0.788387 0.678048 0.553332 0.513720 0.477526 0.357262
Pattern_4 0.419852 0.459575 0.529989 0.553994 0.684478 0.856643
Pattern_4 0.966139 1.096289 1.309583 1.393582 1.430302 1.572717
Pattern_4 1.571819 1.753531 1.580287 1.768976 1.698682 1.404118
Pattern_4 1.419487 1.391819 1.480236 1.202341 1.323367 1.208730
Pattern_4 1.143217 1.127650 1.064295 1.108609 1.212858 1.165918
Pattern_4 1.162270 1.282652 1.244704 1.323996 1.300712 1.494258
Pattern_4 1.208422 1.342903 1.256349 1.123794 1.030571 0.896027
Pattern_4 0.753476 0.698233 0.621267 0.510675 0.463811 0.441480
Pattern_4 0.438297 0.504104 0.553798 0.636109 0.756224 0.828590
Pattern_4 0.980611 1.030380 1.187690 1.348650 1.528491 1.541731
Pattern_4 1.569543 1.525742 1.624481 1.582757 1.649725 1.325682
Pattern_4 1.535159 1.488468 1.335823 1.250486 1.280308 1.152826
Pattern_4 1.121380 1.287750 1.194692 1.133226 1.296455 1.153635
Pattern_4 1.362949 1.432904 1.494182 1.357277 1.493436 1.449732
Pattern_4 1.401597 1.286086 1.327671 1.164628 1.065469 0.977857
Pattern_4 0.834281 0.700929 0.578739 0.495590 0.427647 0.456338
Pattern_4 0.496295 0.488321 0.598807 0.677711 0.776232 0.897577
Pattern_4 1.047338 1.255216 1.350445 1.348550 1.534867 1.625867
Pattern_4 1.524041 1.575115 1.488149 1.742353 1.745183 1.439535
Pattern_4 1.617861 1.528606 1.306682 1.439334 1.377352 1.301070
Pattern_4 1.326663 1.336962 1.408453 1.196778 1.289233 1.384614
Pattern_4 1.378746 1.389606 1.362307 1.375808 1.406910 1.442431
Pattern_4 1.495150 1.236855 1.397495 1.238788 1.044899 0.958793
Pattern_4 0.774504 0.710672 0.612195 0.528208 0.456652 0.433618
Pattern_4 0.429637 0.519153 0.572560 0.723009 0.791895 0.862220
Pattern_4 1.022213 1.087215 1.269820 1.362191 1.345831 1.565049
Pattern_4 1.647269 1.561597 1.817348 1.431569 1.479360 1.362436
Pattern_4 1.330520 1.333431 1.386234 1.332422 1.254405 1.288103
Pattern_4 1.228163 1.129142 1.177943 1.269891 1.237548 1.292080
Pattern_4 1.341662 1.294581 1.434410 1.383461 1.492267 1.331321
Pattern_4 1.452678 1.399623 1.256282 1.206213 1.039283 0.988864
Pattern_4 0.866142 0.772650 0.634428 0.537733 0.507541 0.515857
Pattern_4 0.534760 0.563072 0.620982 0.798133 0.790662 0.977668
Pattern_4 1.216151 1.415924 1.493150 1.589879 1.661435 1.822975
Pattern_4 1.725735 1.742039 1.869189 1.739403 1.709929 1.688021
Pattern_4 1.554055 1.412389 1.364777 1.444828 1.392288 1.192289
Pattern_4 1.224773 1.360845 1.157225 1.359833 1.404634 1.382151
Pattern_4 1.321627 1.361320 1.466509 1.496809 1.435167 1.191367
Pattern_4 1.248112 1.354836 1.150528 1.246568 1.046963 0.973980