; Filename: ../LeakDB/CCWI-WDSA2018/Dataset_Generator/networks/Hanoi_CMH.inp
; WNTR: 0.3.1
; Created: 2022-04-26 11:55:54
[TITLE]

[JUNCTIONS]
;ID                      Elevation       Demand Pattern                 
 2                                 30          247.22 Pattern_2                  ;
 3                                 30          236.11 Pattern_3                  ;
 4                                 30           36.11 Pattern_4                  ;
 5                                 30          201.39 Pattern_5                  ;
 6                                 30          279.17 Pattern_6                  ;
 7                                 30             375 Pattern_7                  ;
 8                                 30          152.78 Pattern_8                  ;
 9                                 30          145.83 Pattern_9                  ;
 10                                30          145.83 Pattern_10                 ;
 11                                30          138.89 Pattern_11                 ;
 12                                30          155.56 Pattern_12                 ;
 13                                30          261.11 Pattern_13                 ;
 14                                30          170.83 Pattern_14                 ;
 15                                30           77.78 Pattern_15                 ;
 16                                30           86.11 Pattern_16                 ;
 17                                30          240.28 Pattern_17                 ;
 18                                30          373.61 Pattern_18                 ;
 19                                30           16.67 Pattern_19                 ;
 20                                30          354.17 Pattern_20                 ;
 21                                30          258.33 Pattern_21                 ;
 22                                30          134.72 Pattern_22                 ;
 23                                30          290.28 Pattern_23                 ;
 24                                30          227.78 Pattern_24                 ;
 25                                30           47.22 Pattern_25                 ;
 26                                30             250 Pattern_26                 ;
 27                                30          102.78 Pattern_27                 ;
 28                                30           80.56 Pattern_28                 ;
 29                                30             100 Pattern_29                 ;
 30                                30             100 Pattern_30                 ;
 31                                30           29.17 Pattern_31                 ;
 32                                30          223.61 Pattern_32                 ;

[RESERVOIRS]
;ID                                   Head                  Pattern
 1                                100                            ;

[TANKS]
;ID                              Elevation           Init Level            Min Level            Max Level             Diameter           Min Volume Volume Curve         Overflow            

[PIPES]
;ID                   Node1                Node2                              Length             Diameter            Roughness           Minor Loss               Status
 1                    1                    2                                100            1016             130               0                 Open   ;
 2                    2                    3                               1350            1016             130               0                 Open   ;
 3                    3                    4                                900            1016             130               0                 Open   ;
 4                    4                    5                               1150            1016             130               0                 Open   ;
 5                    5                    6                               1450            1016             130               0                 Open   ;
 6                    6                    7                                450            1016             130               0                 Open   ;
 7                    7                    8                                850            1016             130               0                 Open   ;
 8                    8                    9                                850            1016             130               0                 Open   ;
 9                    9                    10                               800            1016             130               0                 Open   ;
 10                   10                   11                               950             762             130               0                 Open   ;
 11                   11                   12                              1200             762             130               0                 Open   ;
 12                   12                   13                              3500           609.6             130               0                 Open   ;
 13                   10                   14                               800           406.4             130               0                 Open   ;
 14                   14                   15                               500           406.4             130               0                 Open   ;
 15                   15                   16                               550           304.8             130               0                 Open   ;
 16                   17                   16                              2730           406.4             130               0                 Open   ;
 17                   17                   18                              1750             508             130               0                 Open   ;
 18                   18                   19                               800           609.6             130               0                 Open   ;
 19                   19                   3                                400           609.6             130               0                 Open   ;
 20                   3                    20                              2200            1016             130               0                 Open   ;
 21                   20                   21                              1500             508             130               0                 Open   ;
 22                   21                   22                               500           304.8             130               0                 Open   ;
 23                   20                   23                              2650            1016             130               0                 Open   ;
 24                   23                   24                              1230             762             130               0                 Open   ;
 25                   24                   25                              1300             762             130               0                 Open   ;
 26                   26                   25                               850             508             130               0                 Open   ;
 27                   27                   26                               300           304.8             130               0                 Open   ;
 28                   16                   27                               750           304.8             130               0                 Open   ;
 29                   23                   28                              1500           406.4             130               0                 Open   ;
 30                   28                   29                              2000           406.4             130               0                 Open   ;
 31                   29                   30                              1600           304.8             130               0                 Open   ;
 32                   30                   31                               150           304.8             130               0                 Open   ;
 33                   32                   31                               860           406.4             130               0                 Open   ;
 34                   25                   32                               950             508             130               0                 Open   ;

[PUMPS]
;ID                   Node1                Node2                Properties          

[VALVES]
;ID                   Node1                Node2                            Diameter Type              Setting           Minor Loss

[TAGS]
;type      name       tag       

[DEMANDS]
;ID        Demand     Pattern   

[STATUS]
;ID        Setting   
[PATTERNS]
;ID        Multipliers

Pattern_2 0.799344 0.859445 0.839668 0.721769 0.774936 0.789959
Pattern_2 0.711626 0.728235 0.713677 0.683501 0.718949 0.813274
Pattern_2 0.796734 0.868671 0.869814 1.047177 0.934929 1.115253
Pattern_2 1.128219 1.232658 1.212535 1.290385 1.229598 1.321567
Pattern_2 1.351424 1.281896 1.280962 1.124912 1.253122 1.189580
Pattern_2 1.160058 1.241175 1.123699 1.117549 1.063338 1.173038
Pattern_2 1.270701 1.242537 1.156254 1.143918 1.160088 1.166156
Pattern_2 1.255873 1.268148 1.152583 1.023273 1.055525 0.945563
Pattern_2 0.831520 0.828928 0.769472 0.741372 0.743087 0.674558
Pattern_2 0.642138 0.654965 0.683321 0.830989 0.832514 0.885095
Pattern_2 1.014268 0.999683 1.114810 1.205210 1.413159 1.313828
Pattern_2 1.454598 1.468591 1.501729 1.500906 1.623773 1.439154
Pattern_2 1.412901 1.310479 1.415279 1.357693 1.232499 1.179952
Pattern_2 1.181891 1.210443 1.070127 1.308149 1.062729 1.202083
Pattern_2 1.230033 1.203928 1.372695 1.214601 1.261191 1.206711
Pattern_2 1.261847 1.203939 1.321372 1.154673 0.958645 1.099160
Pattern_2 0.857484 0.789521 0.722722 0.701954 0.672142 0.674133
Pattern_2 0.649467 0.661642 0.735707 0.791680 0.930724 0.944614
Pattern_2 0.948640 1.095469 1.105667 1.197151 1.357699 1.433552
Pattern_2 1.469355 1.469447 1.461880 1.412578 1.427561 1.435082
Pattern_2 1.490641 1.405346 1.274479 1.239417 1.228586 1.148962
Pattern_2 1.172681 1.175784 1.132921 1.217030 1.193636 1.246896
Pattern_2 1.214814 1.304608 1.457520 1.279097 1.379121 1.247630
Pattern_2 1.307322 1.278411 1.186951 1.148903 1.062112 1.019882
Pattern_2 0.920525 0.830532 0.772062 0.745961 0.673004 0.594831
Pattern_2 0.661798 0.749845 0.765768 0.798753 0.861961 0.922870
Pattern_2 1.066473 1.062703 1.192516 1.402780 1.280025 1.476957
Pattern_2 1.335116 1.460862 1.426688 1.460801 1.413665 1.484564
Pattern_2 1.407685 1.393180 1.277908 1.345311 1.224375 1.295663
Pattern_2 1.186175 1.209398 1.150066 1.119995 1.257938 1.208670
Pattern_2 1.275370 1.403156 1.079824 1.224422 1.275703 1.312196
Pattern_2 1.319718 1.201836 1.165201 1.224155 1.010453 0.950292
Pattern_2 0.872730 0.876656 0.770148 0.737938 0.728413 0.666779
Pattern_2 0.671515 0.726063 0.753022 0.811929 0.834077 0.956044
Pattern_2 1.025635 1.145178 1.261685 1.238569 1.339115 1.316600
Pattern_2 1.382692 1.534810 1.477584 1.429995 1.489853 1.417943
Pattern_2 1.358405 1.372549 1.377228 1.260203 1.188686 1.139067
Pattern_2 1.207652 1.210923 1.256707 1.296936 1.217676 1.246643
Pattern_2 1.160856 1.308669 1.367845 1.329163 1.348505 1.278941
Pattern_2 1.256203 1.290178 1.242515 1.056328 1.124453 1.033025
Pattern_2 0.931358 0.899207 0.803324 0.717986 0.721478 0.732346
Pattern_2 0.649557 0.675343 0.747475 0.758076 0.977493 1.029377
Pattern_2 1.160657 1.122857 1.408884 1.418486 1.485711 1.477273
Pattern_2 1.468711 1.652145 1.574821 1.545809 1.495083 1.612874
Pattern_2 1.451483 1.508117 1.345581 1.291106 1.359129 1.294866
Pattern_2 1.388783 1.356223 1.192702 1.356235 1.378077 1.144021
Pattern_2 1.263703 1.298210 1.188921 1.411294 1.395859 1.411785
Pattern_2 1.189128 1.248336 1.177653 1.090143 1.083944 1.100805
Pattern_2 0.982480 0.946646 0.820837 0.772612 0.789493 0.744255
Pattern_2 0.740246 0.670291 0.780222 0.740861 0.820802 0.861953
Pattern_2 0.861299 0.954982 1.040391 1.027148 1.265183 1.189504
Pattern_2 1.283828 1.343319 1.345495 1.359683 1.339976 1.385719
Pattern_2 1.334685 1.368416 1.330670 1.437636 1.215849 1.413271
Pattern_2 1.132221 1.260313 1.368225 1.259187 1.381140 1.323587
Pattern_2 1.275212 1.243911 1.234692 1.286751 1.222965 1.227368
Pattern_2 1.202392 1.083730 1.084339 1.015330 0.892492 0.901874
Pattern_2 0.868909

Pattern_3 0.797042 0.682733 0.660167 0.649358 0.614364 0.549647
Pattern_3 0.584061 0.555590 0.557419 0.553530 0.566427 0.652209
Pattern_3 0.675376 0.804848 0.917122 0.931851 0.971880 1.074329
Pattern_3 1.206458 1.186330 1.300174 1.406133 1.313254 1.442826
Pattern_3 1.446603 1.317130 1.273484 1.278907 1.359280 1.185861
Pattern_3 1.198225 1.080081 1.216699 1.065765 1.191415 1.154644
Pattern_3 1.209225 1.192129 1.219133 1.301741 1.301871 1.218531
Pattern_3 1.231569 1.195626 1.033741 0.911404 0.925355 0.802123
Pattern_3 0.818545 0.589831 0.629645 0.520425 0.478986 0.461711
Pattern_3 0.483647 0.485897 0.526064 0.592561 0.774365 0.854111
Pattern_3 0.963491 1.174604 1.240049 1.364940 1.389835 1.477432
Pattern_3 1.693645 1.635235 1.677288 1.705413 1.810495 1.693526
Pattern_3 1.651333 1.443484 1.421726 1.397436 1.296616 1.082673
Pattern_3 1.166909 1.096327 1.107376 1.192752 1.165384 1.218657
Pattern_3 1.259975 1.243085 1.327725 1.358566 1.514166 1.443916
Pattern_3 1.304452 1.334161 1.173603 1.089032 0.974805 0.891419
Pattern_3 0.794598 0.694395 0.664483 0.585984 0.545282 0.501981
Pattern_3 0.486220 0.537524 0.601322 0.659409 0.805863 0.798240
Pattern_3 0.936051 1.053210 1.168650 1.347993 1.395651 1.481407
Pattern_3 1.561546 1.524653 1.669184 1.652803 1.510697 1.585027
Pattern_3 1.623643 1.386940 1.331678 1.297207 1.163042 1.199495
Pattern_3 1.140056 1.324797 1.185839 1.104016 1.205569 1.249491
Pattern_3 1.328338 1.343317 1.275640 1.478649 1.308206 1.324283
Pattern_3 1.223714 1.254506 1.190612 1.078580 1.006250 0.914535
Pattern_3 0.773947 0.777841 0.558632 0.542119 0.500786 0.422577
Pattern_3 0.510044 0.552407 0.604348 0.672149 0.781917 0.923384
Pattern_3 1.087759 1.193247 1.218836 1.241099 1.443016 1.589466
Pattern_3 1.666567 1.632274 1.626542 1.587021 1.509726 1.566978
Pattern_3 1.570367 1.472706 1.279790 1.420775 1.339238 1.188596
Pattern_3 1.274287 1.205494 1.268858 1.257501 1.209732 1.344555
Pattern_3 1.323266 1.259124 1.369330 1.165283 1.328378 1.490739
Pattern_3 1.294529 1.296434 1.191716 0.973101 0.971922 0.863925
Pattern_3 0.829805 0.673825 0.579159 0.532094 0.530116 0.462345
Pattern_3 0.507599 0.538225 0.616881 0.687449 0.773771 0.898333
Pattern_3 1.049890 1.175052 1.323706 1.426705 1.522440 1.641047
Pattern_3 1.513538 1.500463 1.701012 1.572086 1.479202 1.477781
Pattern_3 1.342587 1.323530 1.551418 1.314300 1.301891 1.274462
Pattern_3 1.260298 1.236292 1.305713 1.297303 1.409125 1.333947
Pattern_3 1.271878 1.292525 1.323907 1.357304 1.430675 1.266596
Pattern_3 1.290734 1.300858 1.206473 1.090003 1.063803 1.013074
Pattern_3 0.817971 0.670353 0.583420 0.567216 0.547343 0.506758
Pattern_3 0.569978 0.536195 0.664808 0.759270 0.861565 1.085322
Pattern_3 1.161610 1.275217 1.413462 1.577692 1.743278 1.903075
Pattern_3 1.831748 1.903831 1.727989 1.872960 1.739936 1.825921
Pattern_3 1.631414 1.423736 1.534043 1.399411 1.343683 1.378663
Pattern_3 1.399998 1.282443 1.306713 1.430175 1.320933 1.346244
Pattern_3 1.320297 1.347679 1.422102 1.320657 1.398716 1.227013
Pattern_3 1.171794 1.221508 1.098956 1.131362 0.985411 0.942532
Pattern_3 0.834730 0.864868 0.646731 0.657013 0.611649 0.599311
Pattern_3 0.553113 0.526631 0.570771 0.605902 0.661981 0.744896
Pattern_3 0.808174 0.957607 0.994406 1.115435 1.171811 1.369645
Pattern_3 1.435631 1.383319 1.526785 1.654586 1.481521 1.356333
Pattern_3 1.452908 1.493571 1.476284 1.603848 1.321711 1.120748
Pattern_3 1.407427 1.322099 1.354752 1.422877 1.338842 1.338612
Pattern_3 1.441375 1.349346 1.214919 1.238385 1.227607 1.165806
Pattern_3 1.148744 1.097396 1.008898 0.927775 0.951081 0.787067
Pattern_3 0.767305

Pattern_4 0.803718 0.773249 0.676090 0.702609 0.576154 0.597892
Pattern_4 0.592060 0.559200 0.588614 0.579494 0.643634 0.686227
Pattern_4 0.699844 0.815218 0.838778 0.862726 1.039501 1.068537
Pattern_4 1.039803 1.250306 1.225770 1.261659 1.256202 1.357694
Pattern_4 1.181429 1.333984 1.269986 1.213728 1.290903 1.263972
Pattern_4 1.192528 1.191871 1.160166 1.144259 1.219545 1.250360
Pattern_4 1.205084 1.253428 1.310591 1.338315 1.263696 1.281718
Pattern_4 1.316066 1.172740 1.195262 1.028534 0.980080 0.906456
Pattern_4 0.847616 0.719483 0.582107 0.550958 0.560123 0.513174
Pattern_4 0.602447 0.601504 0.592204 0.721977 0.755527 0.844418
Pattern_4 0.954764 1.157962 1.206424 1.428372 1.399772 1.386942
Pattern_4 1.519756 1.564816 1.617165 1.624332 1.656845 1.703195
Pattern_4 1.580561 1.416700 1.265577 1.212924 1.227519 1.067860
Pattern_4 1.059652 1.065423 0.986653 1.067796 1.080845 1.271741
Pattern_4 1.321590 1.346301 1.407504 1.423347 1.362430 1.402471
Pattern_4 1.406929 1.400482 1.279540 1.158690 1.029607 0.921745
Pattern_4 0.837879 0.676973 0.671883 0.612303 0.533954 0.533301
Pattern_4 0.540010 0.571976 0.608242 0.719558 0.780466 0.871419
Pattern_4 0.938497 1.149866 1.214856 1.284860 1.475863 1.660811
Pattern_4 1.512887 1.546830 1.647238 1.557628 1.649923 1.529543
Pattern_4 1.413418 1.361693 1.273871 1.373808 1.258726 1.124491
Pattern_4 1.143864 1.116041 1.172111 1.091560 1.262540 1.314143
Pattern_4 1.351285 1.157683 1.314586 1.481048 1.409565 1.326461
Pattern_4 1.284922 1.312015 1.383584 1.179584 1.040137 0.917838
Pattern_4 0.852842 0.721820 0.690198 0.583347 0.555198 0.562746
Pattern_4 0.568371 0.581069 0.720222 0.739990 0.836962 0.945493
Pattern_4 1.056929 1.110545 1.231603 1.269340 1.453928 1.566516
Pattern_4 1.474570 1.676011 1.630391 1.530107 1.415737 1.508440
Pattern_4 1.625564 1.463733 1.330815 1.373775 1.244739 1.223013
Pattern_4 1.214476 1.131745 1.291976 1.225039 1.353044 1.298338
Pattern_4 1.235381 1.195161 1.330113 1.489784 1.395869 1.264640
Pattern_4 1.432003 1.372242 1.277845 1.089546 0.999564 1.004996
Pattern_4 0.900102 0.702394 0.663507 0.635175 0.544633 0.532122
Pattern_4 0.498977 0.561670 0.643621 0.733595 0.792144 0.901207
Pattern_4 1.070176 1.270408 1.217893 1.451552 1.417632 1.579451
Pattern_4 1.535060 1.491492 1.672825 1.458028 1.629524 1.508179
Pattern_4 1.442812 1.475853 1.240885 1.304454 1.274864 1.135948
Pattern_4 1.269515 1.277066 1.237575 1.027673 1.282807 1.444727
Pattern_4 1.236185 1.303946 1.444300 1.388664 1.462552 1.404322
Pattern_4 1.344400 1.266063 1.344297 1.297402 0.988246 1.007780
Pattern_4 0.909949 0.887467 0.753390 0.551709 0.565925 0.589835
Pattern_4 0.591186 0.573360 0.665941 0.876485 0.960531 1.076560
Pattern_4 1.104481 1.335304 1.411851 1.516792 1.776619 1.775081
Pattern_4 1.706897 1.924243 1.649568 1.755286 1.750913 1.609107
Pattern_4 1.721520 1.489501 1.396593 1.391906 1.278657 1.346216
Pattern_4 1.267542 1.286373 1.195528 1.291720 1.267808 1.256547
Pattern_4 1.316950 1.387296 1.350976 1.315074 1.410454 1.338102
Pattern_4 1.432651 1.208067 1.276113 1.064163 0.990959 0.996645
Pattern_4 0.978846 0.878260 0.796358 0.791981 0.724790 0.620821
Pattern_4 0.637779 0.621822 0.573759 0.638694 0.745871 0.790508
Pattern_4 0.903738 0.835512 1.131083 1.188003 1.262259 1.328236
Pattern_4 1.402189 1.435213 1.395140 1.514589 1.468543 1.374499
Pattern_4 1.423038 1.498156 1.288938 1.596051 1.318218 1.312144
Pattern_4 1.235707 1.170047 1.320612 1.219516 1.190886 1.380842
Pattern_4 1.221300 1.363283 1.347107 1.294748 1.363896 1.159509
Pattern_4 1.204982 1.158322 1.005933 1.035079 0.951108 0.904059
Pattern_4 0.777565

Pattern_5 0.708341 0.648686 0.605694 0.569926 0.494902 0.487443
Pattern_5 0.437524 0.456599 0.518430 0.507456 0.532587 0.571323
Pattern_5 0.631018 0.731960 0.817018 0.856143 1.073845 1.046344
Pattern_5 1.267967 1.266781 1.395577 1.444146 1.440083 1.423390
Pattern_5 1.451442 1.287332 1.287721 1.246248 1.344757 1.293488
Pattern_5 1.183989 1.154616 1.262879 1.197876 1.333540 1.138008
Pattern_5 1.284854 1.215172 1.327583 1.251858 1.407848 1.292276
Pattern_5 1.224864 1.228858 1.085485 1.051513 0.909422 0.813943
Pattern_5 0.693138 0.560413 0.507446 0.423692 0.407779 0.372479
Pattern_5 0.404064 0.393747 0.492655 0.536018 0.633121 0.735804
Pattern_5 0.907534 1.134924 1.159274 1.451817 1.489657 1.637238
Pattern_5 1.570782 1.800857 1.692538 1.916672 1.649542 1.661719
Pattern_5 1.675421 1.377636 1.372695 1.415173 1.373496 1.225407
Pattern_5 1.103656 1.202823 1.138562 1.077415 1.192372 1.127902
Pattern_5 1.213871 1.234409 1.312208 1.485358 1.392136 1.347573
Pattern_5 1.397108 1.208076 1.227873 1.178866 1.062973 0.911111
Pattern_5 0.774497 0.631166 0.573061 0.449746 0.418323 0.385809
Pattern_5 0.385732 0.428346 0.492026 0.557783 0.690497 0.686610
Pattern_5 0.958409 1.048058 1.067934 1.284169 1.405526 1.644997
Pattern_5 1.719029 1.562161 1.673519 1.597494 1.544397 1.754615
Pattern_5 1.443867 1.565885 1.496386 1.372222 1.330779 1.253279
Pattern_5 1.269770 1.206728 1.197865 1.161921 1.238554 1.144751
Pattern_5 1.284415 1.405504 1.522704 1.419933 1.549037 1.526234
Pattern_5 1.371347 1.301152 1.269923 1.150207 1.032836 0.775474
Pattern_5 0.796347 0.566270 0.537391 0.441555 0.421023 0.382701
Pattern_5 0.425001 0.460264 0.537717 0.668770 0.680978 0.879483
Pattern_5 1.001598 1.122387 1.241046 1.293806 1.522759 1.630037
Pattern_5 1.521766 1.614717 1.761331 1.917369 1.732836 1.648210
Pattern_5 1.699486 1.602257 1.541210 1.498600 1.305158 1.322953
Pattern_5 1.296841 1.257420 1.225768 1.278619 1.301664 1.291740
Pattern_5 1.330205 1.331492 1.386166 1.422357 1.465558 1.489070
Pattern_5 1.236190 1.254304 1.254389 1.162045 1.068877 0.902759
Pattern_5 0.806139 0.631341 0.580339 0.496997 0.426252 0.368632
Pattern_5 0.425176 0.430542 0.478259 0.572593 0.755978 0.919314
Pattern_5 1.028932 1.188816 1.154124 1.357792 1.514592 1.546553
Pattern_5 1.556663 1.715315 1.617484 1.579719 1.555027 1.577870
Pattern_5 1.526749 1.420925 1.295610 1.363873 1.274827 1.275703
Pattern_5 1.245936 1.289004 1.108666 1.334633 1.231254 1.242921
Pattern_5 1.320591 1.401862 1.400595 1.523353 1.416836 1.370422
Pattern_5 1.508482 1.372274 1.205092 1.131087 1.018963 0.883005
Pattern_5 0.726948 0.651739 0.520190 0.539483 0.388980 0.423316
Pattern_5 0.422460 0.436520 0.557655 0.757762 0.810903 1.014305
Pattern_5 0.999680 1.342977 1.526890 1.754605 1.827008 1.802942
Pattern_5 1.980569 1.821239 1.891071 1.814979 1.845565 1.906794
Pattern_5 1.764342 1.587917 1.559649 1.532221 1.476984 1.382274
Pattern_5 1.278743 1.229816 1.341149 1.366632 1.343307 1.345801
Pattern_5 1.403618 1.339500 1.493651 1.446731 1.366862 1.402975
Pattern_5 1.358352 1.226362 1.264469 1.074402 0.922246 0.860837
Pattern_5 0.815108 0.833497 0.665636 0.568479 0.487682 0.466224
Pattern_5 0.426758 0.443606 0.466662 0.553442 0.567842 0.693187
Pattern_5 0.859336 0.906693 1.033941 1.154546 1.355395 1.374499
Pattern_5 1.353093 1.464894 1.540322 1.590043 1.488516 1.464144
Pattern_5 1.534432 1.442160 1.488427 1.516103 1.320363 1.355874
Pattern_5 1.481798 1.367012 1.457781 1.434834 1.375505 1.339399
Pattern_5 1.404011 1.378881 1.326139 1.336223 1.273891 1.204047
Pattern_5 1.154256 1.173396 0.994822 0.943544 0.930310 0.739760
Pattern_5 0.728343

Pattern_6 0.769206 0.758550 0.748677 0.679936 0.604858 0.610596
Pattern_6 0.609902 0.590749 0.567568 0.582859 0.603714 0.643778
Pattern_6 0.681307 0.770825 0.831098 0.959825 0.984147 1.137634
Pattern_6 1.143033 1.194284 1.262149 1.293879 1.291551 1.223380
Pattern_6 1.387585 1.433364 1.288083 1.327990 1.391299 1.239753
Pattern_6 1.274185 1.179441 1.149904 1.267157 1.213418 1.231084
Pattern_6 1.281162 1.265538 1.326812 1.445821 1.339926 1.268166
Pattern_6 1.273155 1.091286 1.093335 1.018834 0.917243 0.878395
Pattern_6 0.733486 0.730282 0.578623 0.551424 0.509009 0.488573
Pattern_6 0.454544 0.442135 0.539358 0.598054 0.695996 0.828286
Pattern_6 0.966728 1.020109 1.104288 1.268934 1.498734 1.422613
Pattern_6 1.557225 1.721933 1.592915 1.505055 1.580310 1.585018
Pattern_6 1.524362 1.382601 1.308954 1.416063 1.165323 1.198147
Pattern_6 1.127551 1.091272 1.052706 1.207365 1.213037 1.279940
Pattern_6 1.294798 1.413311 1.300773 1.287971 1.416578 1.477718
Pattern_6 1.422757 1.219620 1.178538 1.068587 0.996565 0.945754
Pattern_6 0.852738 0.726365 0.660891 0.563370 0.517912 0.489759
Pattern_6 0.516781 0.518391 0.590818 0.589990 0.696359 0.870968
Pattern_6 0.948337 1.044084 1.211276 1.319473 1.412569 1.449368
Pattern_6 1.464695 1.458584 1.487059 1.415624 1.566746 1.499986
Pattern_6 1.522972 1.262738 1.333456 1.239029 1.187563 1.229648
Pattern_6 1.273947 1.275751 1.179989 1.265813 1.286505 1.366383
Pattern_6 1.367453 1.316459 1.453275 1.398522 1.354014 1.473581
Pattern_6 1.358707 1.265287 1.259727 1.104121 1.119061 0.915047
Pattern_6 0.827998 0.687570 0.597945 0.581094 0.512129 0.505428
Pattern_6 0.508500 0.572113 0.568259 0.697634 0.703491 0.872591
Pattern_6 0.977081 1.141553 1.147273 1.401961 1.495543 1.388438
Pattern_6 1.494430 1.487865 1.670099 1.590922 1.627175 1.529779
Pattern_6 1.442201 1.552235 1.328645 1.384267 1.307199 1.251621
Pattern_6 1.308620 1.222340 1.291232 1.320736 1.301478 1.262669
Pattern_6 1.439974 1.470112 1.357697 1.420160 1.530827 1.337253
Pattern_6 1.389720 1.256224 1.205877 1.168441 1.045291 0.959261
Pattern_6 0.839003 0.734913 0.668595 0.571958 0.555387 0.493709
Pattern_6 0.517901 0.552723 0.590318 0.676688 0.848627 0.856494
Pattern_6 0.966486 1.180750 1.220359 1.349703 1.406408 1.419177
Pattern_6 1.545396 1.460339 1.641813 1.462906 1.453685 1.584761
Pattern_6 1.437335 1.308092 1.437590 1.230757 1.311812 1.295424
Pattern_6 1.266210 1.186610 1.288512 1.209516 1.357919 1.362177
Pattern_6 1.309516 1.321098 1.422937 1.402113 1.332073 1.283867
Pattern_6 1.423355 1.318278 1.204577 1.094167 1.063009 0.935680
Pattern_6 0.876177 0.753953 0.685070 0.635303 0.566683 0.549155
Pattern_6 0.556766 0.635470 0.625589 0.723319 0.906797 0.984829
Pattern_6 1.178623 1.240890 1.254700 1.441571 1.456357 1.509333
Pattern_6 1.694458 1.825252 1.743457 1.630890 1.628204 1.591155
Pattern_6 1.718162 1.571089 1.543209 1.497173 1.463022 1.339384
Pattern_6 1.355695 1.226655 1.309836 1.239218 1.314344 1.437802
Pattern_6 1.354963 1.391004 1.284623 1.333614 1.270369 1.370331
Pattern_6 1.296657 1.162521 1.252577 1.091949 1.087008 0.892664
Pattern_6 1.001527 0.885338 0.746960 0.643785 0.633382 0.622569
Pattern_6 0.552875 0.552059 0.574458 0.646638 0.663778 0.756758
Pattern_6 0.869613 0.870015 1.002854 1.114733 1.173093 1.217537
Pattern_6 1.345596 1.465891 1.386940 1.452539 1.452902 1.417447
Pattern_6 1.514359 1.303291 1.358299 1.428506 1.375007 1.421778
Pattern_6 1.314497 1.439483 1.319749 1.326636 1.256544 1.310461
Pattern_6 1.243556 1.298807 1.281620 1.355505 1.269093 1.209569
Pattern_6 1.166945 1.144724 1.079479 0.966325 0.902929 0.830433
Pattern_6 0.793195

Pattern_7 0.849554 0.806937 0.706384 0.667587 0.609658 0.611159
Pattern_7 0.590324 0.489257 0.540979 0.572230 0.575248 0.667639
Pattern_7 0.708036 0.719808 0.870999 0.933097 1.046114 0.997454
Pattern_7 1.187067 1.169064 1.246895 1.376332 1.332979 1.315719
Pattern_7 1.371673 1.313819 1.313114 1.293601 1.340757 1.136850
Pattern_7 1.116047 1.152657 1.086222 1.092420 1.195881 1.251129
Pattern_7 1.234438 1.262166 1.302589 1.269134 1.233800 1.275518
Pattern_7 1.395046 1.275551 1.164524 1.041215 0.984567 0.907223
Pattern_7 0.775954 0.701526 0.628302 0.541294 0.516184 0.494701
Pattern_7 0.470620 0.543109 0.571307 0.630509 0.682890 0.838863
Pattern_7 1.038843 1.142215 1.238915 1.404748 1.466120 1.532559
Pattern_7 1.706517 1.471866 1.559581 1.509232 1.651474 1.594144
Pattern_7 1.587813 1.416379 1.456163 1.258595 1.233436 1.219341
Pattern_7 1.116003 1.030629 1.015404 1.087362 1.122494 1.200212
Pattern_7 1.220325 1.293209 1.370707 1.347529 1.368898 1.516491
Pattern_7 1.385495 1.358280 1.208882 1.165782 1.110480 0.907534
Pattern_7 0.772639 0.730942 0.751122 0.573893 0.559929 0.490556
Pattern_7 0.520641 0.555005 0.605364 0.686385 0.790012 0.929620
Pattern_7 0.870095 1.123080 1.208699 1.217324 1.482242 1.505202
Pattern_7 1.574610 1.613228 1.501992 1.565718 1.470108 1.548960
Pattern_7 1.192270 1.539079 1.340905 1.186994 1.201844 1.193078
Pattern_7 1.148771 1.176705 1.062964 1.197199 1.263507 1.239527
Pattern_7 1.300205 1.502526 1.417819 1.487056 1.550849 1.407446
Pattern_7 1.530905 1.409916 1.277527 1.210403 1.113945 0.945820
Pattern_7 0.841353 0.713521 0.653722 0.536354 0.506705 0.504704
Pattern_7 0.519847 0.558190 0.628719 0.705801 0.841855 1.030519
Pattern_7 0.964306 1.073962 1.276506 1.305305 1.517178 1.421826
Pattern_7 1.727007 1.581220 1.666331 1.564793 1.566574 1.544806
Pattern_7 1.331888 1.384783 1.268617 1.377657 1.164926 1.259333
Pattern_7 1.196273 1.298707 1.098599 1.215653 1.265168 1.277748
Pattern_7 1.216865 1.363694 1.286204 1.353804 1.391806 1.343631
Pattern_7 1.294734 1.489216 1.242790 1.168238 1.049613 1.013302
Pattern_7 0.832233 0.746063 0.664060 0.608442 0.514054 0.464685
Pattern_7 0.458933 0.547863 0.586722 0.787742 0.752097 0.930924
Pattern_7 0.937646 1.210259 1.199042 1.417173 1.362312 1.474373
Pattern_7 1.645095 1.586577 1.503090 1.465532 1.536796 1.559490
Pattern_7 1.344409 1.338404 1.272425 1.198283 1.178924 1.143205
Pattern_7 1.199233 1.110880 1.142203 1.230169 1.300841 1.183153
Pattern_7 1.373228 1.314169 1.483089 1.456268 1.294429 1.471178
Pattern_7 1.319688 1.321632 1.272096 1.176293 0.980787 0.931608
Pattern_7 0.936899 0.765850 0.694495 0.631366 0.527058 0.504456
Pattern_7 0.539789 0.574650 0.662741 0.750758 0.873740 1.001649
Pattern_7 1.084579 1.209999 1.475218 1.569839 1.621049 1.746976
Pattern_7 1.907409 1.832877 1.844990 1.628856 1.810751 1.668834
Pattern_7 1.491390 1.695370 1.308341 1.389724 1.236404 1.198551
Pattern_7 1.353405 1.266022 1.284284 1.268037 1.223252 1.292997
Pattern_7 1.191286 1.357214 1.304584 1.294883 1.410524 1.261348
Pattern_7 1.347688 1.225563 1.310188 1.097572 0.984814 0.993612